                                  MODFLOW-2005     
      U.S. GEOLOGICAL SURVEY MODULAR FINITE-DIFFERENCE GROUND-WATER FLOW MODEL
                            VERSION 1.12.00 2/3/2017

 LIST FILE: testsfr2.lst
                         UNIT   12

 OPENING testsfr2.dis
 FILE TYPE:DIS   UNIT   13   STATUS:OLD    
 FORMAT:FORMATTED              ACCESS:SEQUENTIAL          

 OPENING testsfr2.ghb
 FILE TYPE:GHB   UNIT   15   STATUS:OLD    
 FORMAT:FORMATTED              ACCESS:SEQUENTIAL          

 OPENING testsfr2.bs6
 FILE TYPE:BAS6   UNIT   41   STATUS:OLD    
 FORMAT:FORMATTED              ACCESS:SEQUENTIAL          

 OPENING testsfr2.lpf
 FILE TYPE:LPF   UNIT   42   STATUS:OLD    
 FORMAT:FORMATTED              ACCESS:SEQUENTIAL          

 OPENING testsfr2.pcg
 FILE TYPE:PCG   UNIT   43   STATUS:OLD    
 FORMAT:FORMATTED              ACCESS:SEQUENTIAL          

 OPENING testsfr2.oc
 FILE TYPE:OC   UNIT   44   STATUS:OLD    
 FORMAT:FORMATTED              ACCESS:SEQUENTIAL          

 OPENING testsfr2.sfr
 FILE TYPE:SFR   UNIT   45   STATUS:OLD    
 FORMAT:FORMATTED              ACCESS:SEQUENTIAL          

 OPENING testsfr2.gag
 FILE TYPE:GAGE   UNIT   46   STATUS:OLD    
 FORMAT:FORMATTED              ACCESS:SEQUENTIAL          

 OPENING testsfr2.gg1
 FILE TYPE:DATA   UNIT   83   STATUS:UNKNOWN
 FORMAT:FORMATTED              ACCESS:SEQUENTIAL          

 OPENING testsfr2.gg2
 FILE TYPE:DATA   UNIT   84   STATUS:UNKNOWN
 FORMAT:FORMATTED              ACCESS:SEQUENTIAL          

 OPENING testsfr2.gg3
 FILE TYPE:DATA   UNIT   85   STATUS:UNKNOWN
 FORMAT:FORMATTED              ACCESS:SEQUENTIAL          

 OPENING testsfr2.gg4
 FILE TYPE:DATA   UNIT   86   STATUS:UNKNOWN
 FORMAT:FORMATTED              ACCESS:SEQUENTIAL          

 OPENING testsfr2.gg5
 FILE TYPE:DATA   UNIT   87   STATUS:UNKNOWN
 FORMAT:FORMATTED              ACCESS:SEQUENTIAL          

 OPENING testsfr2.gg6
 FILE TYPE:DATA   UNIT   88   STATUS:UNKNOWN
 FORMAT:FORMATTED              ACCESS:SEQUENTIAL          

 OPENING testsfr2.gg7
 FILE TYPE:DATA   UNIT   89   STATUS:UNKNOWN
 FORMAT:FORMATTED              ACCESS:SEQUENTIAL          

 OPENING testsfr2.gg8
 FILE TYPE:DATA   UNIT   90   STATUS:UNKNOWN
 FORMAT:FORMATTED              ACCESS:SEQUENTIAL          

 BAS -- BASIC PACKAGE, VERSION 7, 5/2/2005 INPUT READ FROM UNIT   41

 MODFLOW was compiled using mixed precision
 Precision of REAL variables:           6
 Precision of DOUBLE PRECISION variables:          15

 DISCRETIZATION INPUT DATA READ FROM UNIT   13
 # Discretization file input for hypothetical test simulation
 # Units: seconds, meters
    1 LAYERS         7 ROWS       100 COLUMNS
   50 STRESS PERIOD(S) IN SIMULATION
 MODEL TIME UNIT IS SECONDS
 MODEL LENGTH UNIT IS METERS
  Confining bed flag for each layer:
   0

                     DELR =   200.000    



                               DELC
 READING ON UNIT   13 WITH FORMAT: (FREE)              
   90.000       90.000       90.000       60.000       90.000    
   90.000       90.000    



           TOP ELEVATION OF LAYER 1
 READING ON UNIT   13 WITH FORMAT: (FREE)              

           1          2          3          4          5          6          7          8          9         10         11
          12         13         14         15         16         17         18         19         20         21         22
          23         24         25         26         27         28         29         30         31         32         33
          34         35         36         37         38         39         40         41         42         43         44
          45         46         47         48         49         50         51         52         53         54         55
          56         57         58         59         60         61         62         63         64         65         66
          67         68         69         70         71         72         73         74         75         76         77
          78         79         80         81         82         83         84         85         86         87         88
          89         90         91         92         93         94         95         96         97         98         99
         100
 .........................................................................................................................
   1    125.       124.       124.       124.       124.       123.       123.       123.       123.       122.       122.    
        122.       122.       121.       121.       121.       121.       120.       120.       120.       120.       119.    
        119.       119.       119.       118.       118.       118.       118.       117.       117.       117.       117.    
        116.       116.       116.       116.       115.       115.       115.       115.       114.       114.       114.    
        114.       113.       113.       113.       113.       112.       112.       112.       112.       111.       111.    
        111.       111.       110.       110.       110.       110.       109.       109.       109.       109.       108.    
        108.       108.       108.       107.       107.       107.       107.       106.       106.       106.       106.    
        105.       105.       105.       105.       104.       104.       104.       104.       103.       103.       103.    
        103.       102.       102.       102.       102.       101.       101.       101.       101.       100.       100.    
        100.    
   2    125.       124.       124.       124.       124.       123.       123.       123.       123.       122.       122.    
        122.       122.       121.       121.       121.       121.       120.       120.       120.       120.       119.    
        119.       119.       119.       118.       118.       118.       118.       117.       117.       117.       117.    
        116.       116.       116.       116.       115.       115.       115.       115.       114.       114.       114.    
        114.       113.       113.       113.       113.       112.       112.       112.       112.       111.       111.    
        111.       111.       110.       110.       110.       110.       109.       109.       109.       109.       108.    
        108.       108.       108.       107.       107.       107.       107.       106.       106.       106.       106.    
        105.       105.       105.       105.       104.       104.       104.       104.       103.       103.       103.    
        103.       102.       102.       102.       102.       101.       101.       101.       101.       100.       100.    
        100.    
   3    125.       124.       124.       124.       124.       123.       123.       123.       123.       122.       122.    
        122.       122.       121.       121.       121.       121.       120.       120.       120.       120.       119.    
        119.       119.       119.       118.       118.       118.       118.       117.       117.       117.       117.    
        116.       116.       116.       116.       115.       115.       115.       115.       114.       114.       114.    
        114.       113.       113.       113.       113.       112.       112.       112.       112.       111.       111.    
        111.       111.       110.       110.       110.       110.       109.       109.       109.       109.       108.    
        108.       108.       108.       107.       107.       107.       107.       106.       106.       106.       106.    
        105.       105.       105.       105.       104.       104.       104.       104.       103.       103.       103.    
        103.       102.       102.       102.       102.       101.       101.       101.       101.       100.       100.    
        100.    
   4    125.       124.       124.       124.       124.       123.       123.       123.       123.       122.       122.    
        122.       122.       121.       121.       121.       121.       120.       120.       120.       120.       119.    
        119.       119.       119.       118.       118.       118.       118.       117.       117.       117.       117.    
        116.       116.       116.       116.       115.       115.       115.       115.       114.       114.       114.    
        114.       113.       113.       113.       113.       112.       112.       112.       112.       111.       111.    
        111.       111.       110.       110.       110.       110.       109.       109.       109.       109.       108.    
        108.       108.       108.       107.       107.       107.       107.       106.       106.       106.       106.    
        105.       105.       105.       105.       104.       104.       104.       104.       103.       103.       103.    
        103.       102.       102.       102.       102.       101.       101.       101.       101.       100.       100.    
        100.    
   5    125.       124.       124.       124.       124.       123.       123.       123.       123.       122.       122.    
        122.       122.       121.       121.       121.       121.       120.       120.       120.       120.       119.    
        119.       119.       119.       118.       118.       118.       118.       117.       117.       117.       117.    
        116.       116.       116.       116.       115.       115.       115.       115.       114.       114.       114.    
        114.       113.       113.       113.       113.       112.       112.       112.       112.       111.       111.    
        111.       111.       110.       110.       110.       110.       109.       109.       109.       109.       108.    
        108.       108.       108.       107.       107.       107.       107.       106.       106.       106.       106.    
        105.       105.       105.       105.       104.       104.       104.       104.       103.       103.       103.    
        103.       102.       102.       102.       102.       101.       101.       101.       101.       100.       100.    
        100.    
   6    125.       124.       124.       124.       124.       123.       123.       123.       123.       122.       122.    
        122.       122.       121.       121.       121.       121.       120.       120.       120.       120.       119.    
        119.       119.       119.       118.       118.       118.       118.       117.       117.       117.       117.    
        116.       116.       116.       116.       115.       115.       115.       115.       114.       114.       114.    
        114.       113.       113.       113.       113.       112.       112.       112.       112.       111.       111.    
        111.       111.       110.       110.       110.       110.       109.       109.       109.       109.       108.    
        108.       108.       108.       107.       107.       107.       107.       106.       106.       106.       106.    
        105.       105.       105.       105.       104.       104.       104.       104.       103.       103.       103.    
        103.       102.       102.       102.       102.       101.       101.       101.       101.       100.       100.    
        100.    
   7    125.       124.       124.       124.       124.       123.       123.       123.       123.       122.       122.    
        122.       122.       121.       121.       121.       121.       120.       120.       120.       120.       119.    
        119.       119.       119.       118.       118.       118.       118.       117.       117.       117.       117.    
        116.       116.       116.       116.       115.       115.       115.       115.       114.       114.       114.    
        114.       113.       113.       113.       113.       112.       112.       112.       112.       111.       111.    
        111.       111.       110.       110.       110.       110.       109.       109.       109.       109.       108.    
        108.       108.       108.       107.       107.       107.       107.       106.       106.       106.       106.    
        105.       105.       105.       105.       104.       104.       104.       104.       103.       103.       103.    
        103.       102.       102.       102.       102.       101.       101.       101.       101.       100.       100.    
        100.    

   MODEL LAYER BOTTOM EL. =   0.00000     FOR LAYER   1


 STRESS PERIOD     LENGTH       TIME STEPS     MULTIPLIER FOR DELT    SS FLAG
 ----------------------------------------------------------------------------
        1         2592000.         30                    1.100         TR
        2         2592000.         30                    1.100         TR
        3         2592000.         30                    1.100         TR
        4         2592000.         30                    1.100         TR
        5         2592000.         30                    1.100         TR
        6         2592000.         30                    1.100         TR
        7         2592000.         30                    1.100         TR
        8         2592000.         30                    1.100         TR
        9         2592000.         30                    1.100         TR
       10         2592000.         30                    1.100         TR
       11         2592000.         30                    1.100         TR
       12         2592000.         30                    1.100         TR
       13         2592000.         30                    1.100         TR
       14         2592000.         30                    1.100         TR
       15         2592000.         30                    1.100         TR
       16         2592000.         30                    1.100         TR
       17         2592000.         30                    1.100         TR
       18         2592000.         30                    1.100         TR
       19         2592000.         30                    1.100         TR
       20         2592000.         30                    1.100         TR
       21         2592000.         30                    1.100         TR
       22         2592000.         30                    1.100         TR
       23         2592000.         30                    1.100         TR
       24         2592000.         30                    1.100         TR
       25         2592000.         30                    1.100         TR
       26         2592000.         30                    1.100         TR
       27         2592000.         30                    1.100         TR
       28         2592000.         30                    1.100         TR
       29         2592000.         30                    1.100         TR
       30         2592000.         30                    1.100         TR
       31         2592000.         30                    1.100         TR
       32         2592000.         30                    1.100         TR
       33         2592000.         30                    1.100         TR
       34         2592000.         30                    1.100         TR
       35         2592000.         30                    1.100         TR
       36         2592000.         30                    1.100         TR
       37         2592000.         30                    1.100         TR
       38         2592000.         30                    1.100         TR
       39         2592000.         30                    1.100         TR
       40         2592000.         30                    1.100         TR
       41         2592000.         30                    1.100         TR
       42         2592000.         30                    1.100         TR
       43         2592000.         30                    1.100         TR
       44         2592000.         30                    1.100         TR
       45         2592000.         30                    1.100         TR
       46         2592000.         30                    1.100         TR
       47         2592000.         30                    1.100         TR
       48         2592000.         30                    1.100         TR
       49         2592000.         30                    1.100         TR
       50         2592000.         30                    1.100         TR

 TRANSIENT SIMULATION




 # BAS6 Package input file for hypothetical test simulation                      
 # Test of SFR2 Package                                                          
 THE FREE FORMAT OPTION HAS BEEN SELECTED



                     BOUNDARY ARRAY FOR LAYER   1
 READING ON UNIT   41 WITH FORMAT: (30I2)              

      1 2 3 4 5 6 7 8 9101112131415161718192021222324252627282930313233343536373839404142434445464748495051525354555657585960
     61626364656667686970717273747576777879808182838485868788899091929394959697989100
 ............................................................................................................................
   1  1 1 1 1 1 1 1 1 1 1 1 1 1 1 1 1 1 1 1 1 1 1 1 1 1 1 1 1 1 1 1 1 1 1 1 1 1 1 1 1 1 1 1 1 1 1 1 1 1 1 1 1 1 1 1 1 1 1 1 1
      1 1 1 1 1 1 1 1 1 1 1 1 1 1 1 1 1 1 1 1 1 1 1 1 1 1 1 1 1 1 1 1 1 1 1 1 1 1 1 1
   2  1 1 1 1 1 1 1 1 1 1 1 1 1 1 1 1 1 1 1 1 1 1 1 1 1 1 1 1 1 1 1 1 1 1 1 1 1 1 1 1 1 1 1 1 1 1 1 1 1 1 1 1 1 1 1 1 1 1 1 1
      1 1 1 1 1 1 1 1 1 1 1 1 1 1 1 1 1 1 1 1 1 1 1 1 1 1 1 1 1 1 1 1 1 1 1 1 1 1 1 1
   3  1 1 1 1 1 1 1 1 1 1 1 1 1 1 1 1 1 1 1 1 1 1 1 1 1 1 1 1 1 1 1 1 1 1 1 1 1 1 1 1 1 1 1 1 1 1 1 1 1 1 1 1 1 1 1 1 1 1 1 1
      1 1 1 1 1 1 1 1 1 1 1 1 1 1 1 1 1 1 1 1 1 1 1 1 1 1 1 1 1 1 1 1 1 1 1 1 1 1 1 1
   4  1 1 1 1 1 1 1 1 1 1 1 1 1 1 1 1 1 1 1 1 1 1 1 1 1 1 1 1 1 1 1 1 1 1 1 1 1 1 1 1 1 1 1 1 1 1 1 1 1 1 1 1 1 1 1 1 1 1 1 1
      1 1 1 1 1 1 1 1 1 1 1 1 1 1 1 1 1 1 1 1 1 1 1 1 1 1 1 1 1 1 1 1 1 1 1 1 1 1 1 1
   5  1 1 1 1 1 1 1 1 1 1 1 1 1 1 1 1 1 1 1 1 1 1 1 1 1 1 1 1 1 1 1 1 1 1 1 1 1 1 1 1 1 1 1 1 1 1 1 1 1 1 1 1 1 1 1 1 1 1 1 1
      1 1 1 1 1 1 1 1 1 1 1 1 1 1 1 1 1 1 1 1 1 1 1 1 1 1 1 1 1 1 1 1 1 1 1 1 1 1 1 1
   6  1 1 1 1 1 1 1 1 1 1 1 1 1 1 1 1 1 1 1 1 1 1 1 1 1 1 1 1 1 1 1 1 1 1 1 1 1 1 1 1 1 1 1 1 1 1 1 1 1 1 1 1 1 1 1 1 1 1 1 1
      1 1 1 1 1 1 1 1 1 1 1 1 1 1 1 1 1 1 1 1 1 1 1 1 1 1 1 1 1 1 1 1 1 1 1 1 1 1 1 1
   7  1 1 1 1 1 1 1 1 1 1 1 1 1 1 1 1 1 1 1 1 1 1 1 1 1 1 1 1 1 1 1 1 1 1 1 1 1 1 1 1 1 1 1 1 1 1 1 1 1 1 1 1 1 1 1 1 1 1 1 1
      1 1 1 1 1 1 1 1 1 1 1 1 1 1 1 1 1 1 1 1 1 1 1 1 1 1 1 1 1 1 1 1 1 1 1 1 1 1 1 1

 AQUIFER HEAD WILL BE SET TO  -6999.0     AT ALL NO-FLOW NODES (IBOUND=0).

             INITIAL HEAD =   104.000     FOR LAYER   1
 # OC input file for hypothetical test simulation
 # Test of SFR2 Package

 OUTPUT CONTROL IS SPECIFIED ONLY AT TIME STEPS FOR WHICH OUTPUT IS DESIRED
 COMPACT CELL-BY-CELL BUDGET FILES WILL BE WRITTEN
 HEAD PRINT FORMAT CODE IS  14    DRAWDOWN PRINT FORMAT CODE IS   0
 HEADS WILL BE SAVED ON UNIT    0    DRAWDOWNS WILL BE SAVED ON UNIT    0

 LPF -- LAYER-PROPERTY FLOW PACKAGE, VERSION 7, 5/2/2005
         INPUT READ FROM UNIT   42
 # LPF Package input file for hypothetical test simulation
 # Test of SFR2 Package
 HEAD AT CELLS THAT CONVERT TO DRY=  -999.00    
 No named parameters

   LAYER FLAGS:
 LAYER       LAYTYP        LAYAVG         CHANI        LAYVKA        LAYWET
 ---------------------------------------------------------------------------
    1             1             0     1.000E+00             0             0

   INTERPRETATION OF LAYER FLAGS:
                        INTERBLOCK     HORIZONTAL    DATA IN
         LAYER TYPE   TRANSMISSIVITY   ANISOTROPY   ARRAY VKA   WETTABILITY
 LAYER      (LAYTYP)      (LAYAVG)       (CHANI)      (LAYVKA)      (LAYWET)
 ---------------------------------------------------------------------------
    1   CONVERTIBLE      HARMONIC     1.000E+00    VERTICAL K  NON-WETTABLE

 WETTING CAPABILITY IS NOT ACTIVE IN ANY LAYER

    HYD. COND. ALONG ROWS =  8.000000E-04 FOR LAYER   1

      VERTICAL HYD. COND. =  6.000000E-06 FOR LAYER   1

         SPECIFIC STORAGE =   0.00000     FOR LAYER   1

           SPECIFIC YIELD =  0.200000     FOR LAYER   1

 GHB -- GENERAL-HEAD BOUNDARY PACKAGE, VERSION 7, 5/2/2005
         INPUT READ FROM UNIT   15
 # GHB Package input file for hypothetical test simulation
 # Test of SFR2 Package
 No named parameters
 MAXIMUM OF      7 ACTIVE GHB CELLS AT ONE TIME
 CELL-BY-CELL FLOWS WILL BE PRINTED WHEN ICBCFL NOT 0


     0 GHB parameters

 SFR7 -- STREAMFLOW ROUTING PACKAGE, VERSION 1.0.8, 2017-02-01
         INPUT READ FROM UNIT  45
 # SFR2 Package input file for hypothetical test simulation
 # Test of SFR2 Package; revised May 20, 2006
 No named parameters

 END PROCESSING SFR2 OPTIONS


 NUMBER OF STREAM REACHES IS  100

 NUMBER OF STREAM SEGMENTS IS    1

 NUMBER OF STREAM PARAMETERS IS    0

 NUMBER OF STREAM SEGMENTS DEFINED USING PARAMETERS IS              0

 MAXIMUM ERROR FOR STREAM LEAKAGE RATES IS  1.00E-05

 CONSTANT FOR MANNINGS EQUATION IS  1.0000E+00





 OPTION FOR UNSATURATED FLOW BENEATH STREAMBEDS IS ACTIVE 




   STREAM NETWORK DESCRIPTION: 

   LAYER    ROW    COL   SEGMENT   REACH     LENGTH
                          NUMBER   NUMBER    IN CELL        
   --------------------------------------------------
      1      4      1       1        1    2.0000E+02
      1      4      2       1        2    2.0000E+02
      1      4      3       1        3    2.0000E+02
      1      4      4       1        4    2.0000E+02
      1      4      5       1        5    2.0000E+02
      1      4      6       1        6    2.0000E+02
      1      4      7       1        7    2.0000E+02
      1      4      8       1        8    2.0000E+02
      1      4      9       1        9    2.0000E+02
      1      4     10       1       10    2.0000E+02
      1      4     11       1       11    2.0000E+02
      1      4     12       1       12    2.0000E+02
      1      4     13       1       13    2.0000E+02
      1      4     14       1       14    2.0000E+02
      1      4     15       1       15    2.0000E+02
      1      4     16       1       16    2.0000E+02
      1      4     17       1       17    2.0000E+02
      1      4     18       1       18    2.0000E+02
      1      4     19       1       19    2.0000E+02
      1      4     20       1       20    2.0000E+02
      1      4     21       1       21    2.0000E+02
      1      4     22       1       22    2.0000E+02
      1      4     23       1       23    2.0000E+02
      1      4     24       1       24    2.0000E+02
      1      4     25       1       25    2.0000E+02
      1      4     26       1       26    2.0000E+02
      1      4     27       1       27    2.0000E+02
      1      4     28       1       28    2.0000E+02
      1      4     29       1       29    2.0000E+02
      1      4     30       1       30    2.0000E+02
      1      4     31       1       31    2.0000E+02
      1      4     32       1       32    2.0000E+02
      1      4     33       1       33    2.0000E+02
      1      4     34       1       34    2.0000E+02
      1      4     35       1       35    2.0000E+02
      1      4     36       1       36    2.0000E+02
      1      4     37       1       37    2.0000E+02
      1      4     38       1       38    2.0000E+02
      1      4     39       1       39    2.0000E+02
      1      4     40       1       40    2.0000E+02
      1      4     41       1       41    2.0000E+02
      1      4     42       1       42    2.0000E+02
      1      4     43       1       43    2.0000E+02
      1      4     44       1       44    2.0000E+02
      1      4     45       1       45    2.0000E+02
      1      4     46       1       46    2.0000E+02
      1      4     47       1       47    2.0000E+02
      1      4     48       1       48    2.0000E+02
      1      4     49       1       49    2.0000E+02
      1      4     50       1       50    2.0000E+02
      1      4     51       1       51    2.0000E+02
      1      4     52       1       52    2.0000E+02
      1      4     53       1       53    2.0000E+02
      1      4     54       1       54    2.0000E+02
      1      4     55       1       55    2.0000E+02
      1      4     56       1       56    2.0000E+02
      1      4     57       1       57    2.0000E+02
      1      4     58       1       58    2.0000E+02
      1      4     59       1       59    2.0000E+02
      1      4     60       1       60    2.0000E+02
      1      4     61       1       61    2.0000E+02
      1      4     62       1       62    2.0000E+02
      1      4     63       1       63    2.0000E+02
      1      4     64       1       64    2.0000E+02
      1      4     65       1       65    2.0000E+02
      1      4     66       1       66    2.0000E+02
      1      4     67       1       67    2.0000E+02
      1      4     68       1       68    2.0000E+02
      1      4     69       1       69    2.0000E+02
      1      4     70       1       70    2.0000E+02
      1      4     71       1       71    2.0000E+02
      1      4     72       1       72    2.0000E+02
      1      4     73       1       73    2.0000E+02
      1      4     74       1       74    2.0000E+02
      1      4     75       1       75    2.0000E+02
      1      4     76       1       76    2.0000E+02
      1      4     77       1       77    2.0000E+02
      1      4     78       1       78    2.0000E+02
      1      4     79       1       79    2.0000E+02
      1      4     80       1       80    2.0000E+02
      1      4     81       1       81    2.0000E+02
      1      4     82       1       82    2.0000E+02
      1      4     83       1       83    2.0000E+02
      1      4     84       1       84    2.0000E+02
      1      4     85       1       85    2.0000E+02
      1      4     86       1       86    2.0000E+02
      1      4     87       1       87    2.0000E+02
      1      4     88       1       88    2.0000E+02
      1      4     89       1       89    2.0000E+02
      1      4     90       1       90    2.0000E+02
      1      4     91       1       91    2.0000E+02
      1      4     92       1       92    2.0000E+02
      1      4     93       1       93    2.0000E+02
      1      4     94       1       94    2.0000E+02
      1      4     95       1       95    2.0000E+02
      1      4     96       1       96    2.0000E+02
      1      4     97       1       97    2.0000E+02
      1      4     98       1       98    2.0000E+02
      1      4     99       1       99    2.0000E+02
      1      4    100       1      100    2.0000E+02
 INITIAL WATER CONTENT IS LESS THAN RESIDUAL WATER CONTENT FOR STREAM SEGMENT:     1 REACH:     1 INITIAL WATER CONTENT RESET TO RESIDUAL OF  0.10000E+00
 INITIAL WATER CONTENT IS LESS THAN RESIDUAL WATER CONTENT FOR STREAM SEGMENT:     1 REACH:     2 INITIAL WATER CONTENT RESET TO RESIDUAL OF  0.10000E+00
 INITIAL WATER CONTENT IS LESS THAN RESIDUAL WATER CONTENT FOR STREAM SEGMENT:     1 REACH:     3 INITIAL WATER CONTENT RESET TO RESIDUAL OF  0.10000E+00
 INITIAL WATER CONTENT IS LESS THAN RESIDUAL WATER CONTENT FOR STREAM SEGMENT:     1 REACH:     4 INITIAL WATER CONTENT RESET TO RESIDUAL OF  0.10000E+00
 INITIAL WATER CONTENT IS LESS THAN RESIDUAL WATER CONTENT FOR STREAM SEGMENT:     1 REACH:     5 INITIAL WATER CONTENT RESET TO RESIDUAL OF  0.10000E+00
 INITIAL WATER CONTENT IS LESS THAN RESIDUAL WATER CONTENT FOR STREAM SEGMENT:     1 REACH:     6 INITIAL WATER CONTENT RESET TO RESIDUAL OF  0.10000E+00
 INITIAL WATER CONTENT IS LESS THAN RESIDUAL WATER CONTENT FOR STREAM SEGMENT:     1 REACH:     7 INITIAL WATER CONTENT RESET TO RESIDUAL OF  0.10000E+00
 INITIAL WATER CONTENT IS LESS THAN RESIDUAL WATER CONTENT FOR STREAM SEGMENT:     1 REACH:     8 INITIAL WATER CONTENT RESET TO RESIDUAL OF  0.10000E+00
 INITIAL WATER CONTENT IS LESS THAN RESIDUAL WATER CONTENT FOR STREAM SEGMENT:     1 REACH:     9 INITIAL WATER CONTENT RESET TO RESIDUAL OF  0.10000E+00
 INITIAL WATER CONTENT IS LESS THAN RESIDUAL WATER CONTENT FOR STREAM SEGMENT:     1 REACH:    10 INITIAL WATER CONTENT RESET TO RESIDUAL OF  0.10000E+00
 INITIAL WATER CONTENT IS LESS THAN RESIDUAL WATER CONTENT FOR STREAM SEGMENT:     1 REACH:    11 INITIAL WATER CONTENT RESET TO RESIDUAL OF  0.10000E+00
 INITIAL WATER CONTENT IS LESS THAN RESIDUAL WATER CONTENT FOR STREAM SEGMENT:     1 REACH:    12 INITIAL WATER CONTENT RESET TO RESIDUAL OF  0.10000E+00
 INITIAL WATER CONTENT IS LESS THAN RESIDUAL WATER CONTENT FOR STREAM SEGMENT:     1 REACH:    13 INITIAL WATER CONTENT RESET TO RESIDUAL OF  0.10000E+00
 INITIAL WATER CONTENT IS LESS THAN RESIDUAL WATER CONTENT FOR STREAM SEGMENT:     1 REACH:    14 INITIAL WATER CONTENT RESET TO RESIDUAL OF  0.10000E+00
 INITIAL WATER CONTENT IS LESS THAN RESIDUAL WATER CONTENT FOR STREAM SEGMENT:     1 REACH:    15 INITIAL WATER CONTENT RESET TO RESIDUAL OF  0.10000E+00
 INITIAL WATER CONTENT IS LESS THAN RESIDUAL WATER CONTENT FOR STREAM SEGMENT:     1 REACH:    16 INITIAL WATER CONTENT RESET TO RESIDUAL OF  0.10000E+00
 INITIAL WATER CONTENT IS LESS THAN RESIDUAL WATER CONTENT FOR STREAM SEGMENT:     1 REACH:    17 INITIAL WATER CONTENT RESET TO RESIDUAL OF  0.10000E+00
 INITIAL WATER CONTENT IS LESS THAN RESIDUAL WATER CONTENT FOR STREAM SEGMENT:     1 REACH:    18 INITIAL WATER CONTENT RESET TO RESIDUAL OF  0.10000E+00
 INITIAL WATER CONTENT IS LESS THAN RESIDUAL WATER CONTENT FOR STREAM SEGMENT:     1 REACH:    19 INITIAL WATER CONTENT RESET TO RESIDUAL OF  0.10000E+00
 INITIAL WATER CONTENT IS LESS THAN RESIDUAL WATER CONTENT FOR STREAM SEGMENT:     1 REACH:    20 INITIAL WATER CONTENT RESET TO RESIDUAL OF  0.10000E+00
 INITIAL WATER CONTENT IS LESS THAN RESIDUAL WATER CONTENT FOR STREAM SEGMENT:     1 REACH:    21 INITIAL WATER CONTENT RESET TO RESIDUAL OF  0.10000E+00
 INITIAL WATER CONTENT IS LESS THAN RESIDUAL WATER CONTENT FOR STREAM SEGMENT:     1 REACH:    22 INITIAL WATER CONTENT RESET TO RESIDUAL OF  0.10000E+00
 INITIAL WATER CONTENT IS LESS THAN RESIDUAL WATER CONTENT FOR STREAM SEGMENT:     1 REACH:    23 INITIAL WATER CONTENT RESET TO RESIDUAL OF  0.10000E+00
 INITIAL WATER CONTENT IS LESS THAN RESIDUAL WATER CONTENT FOR STREAM SEGMENT:     1 REACH:    24 INITIAL WATER CONTENT RESET TO RESIDUAL OF  0.10000E+00
 INITIAL WATER CONTENT IS LESS THAN RESIDUAL WATER CONTENT FOR STREAM SEGMENT:     1 REACH:    25 INITIAL WATER CONTENT RESET TO RESIDUAL OF  0.10000E+00
 INITIAL WATER CONTENT IS LESS THAN RESIDUAL WATER CONTENT FOR STREAM SEGMENT:     1 REACH:    26 INITIAL WATER CONTENT RESET TO RESIDUAL OF  0.10000E+00
 INITIAL WATER CONTENT IS LESS THAN RESIDUAL WATER CONTENT FOR STREAM SEGMENT:     1 REACH:    27 INITIAL WATER CONTENT RESET TO RESIDUAL OF  0.10000E+00
 INITIAL WATER CONTENT IS LESS THAN RESIDUAL WATER CONTENT FOR STREAM SEGMENT:     1 REACH:    28 INITIAL WATER CONTENT RESET TO RESIDUAL OF  0.10000E+00
 INITIAL WATER CONTENT IS LESS THAN RESIDUAL WATER CONTENT FOR STREAM SEGMENT:     1 REACH:    29 INITIAL WATER CONTENT RESET TO RESIDUAL OF  0.10000E+00
 INITIAL WATER CONTENT IS LESS THAN RESIDUAL WATER CONTENT FOR STREAM SEGMENT:     1 REACH:    30 INITIAL WATER CONTENT RESET TO RESIDUAL OF  0.10000E+00
 INITIAL WATER CONTENT IS LESS THAN RESIDUAL WATER CONTENT FOR STREAM SEGMENT:     1 REACH:    31 INITIAL WATER CONTENT RESET TO RESIDUAL OF  0.10000E+00
 INITIAL WATER CONTENT IS LESS THAN RESIDUAL WATER CONTENT FOR STREAM SEGMENT:     1 REACH:    32 INITIAL WATER CONTENT RESET TO RESIDUAL OF  0.10000E+00
 INITIAL WATER CONTENT IS LESS THAN RESIDUAL WATER CONTENT FOR STREAM SEGMENT:     1 REACH:    33 INITIAL WATER CONTENT RESET TO RESIDUAL OF  0.10000E+00
 INITIAL WATER CONTENT IS LESS THAN RESIDUAL WATER CONTENT FOR STREAM SEGMENT:     1 REACH:    34 INITIAL WATER CONTENT RESET TO RESIDUAL OF  0.10000E+00
 INITIAL WATER CONTENT IS LESS THAN RESIDUAL WATER CONTENT FOR STREAM SEGMENT:     1 REACH:    35 INITIAL WATER CONTENT RESET TO RESIDUAL OF  0.10000E+00
 INITIAL WATER CONTENT IS LESS THAN RESIDUAL WATER CONTENT FOR STREAM SEGMENT:     1 REACH:    36 INITIAL WATER CONTENT RESET TO RESIDUAL OF  0.10000E+00
 INITIAL WATER CONTENT IS LESS THAN RESIDUAL WATER CONTENT FOR STREAM SEGMENT:     1 REACH:    37 INITIAL WATER CONTENT RESET TO RESIDUAL OF  0.10000E+00
 INITIAL WATER CONTENT IS LESS THAN RESIDUAL WATER CONTENT FOR STREAM SEGMENT:     1 REACH:    38 INITIAL WATER CONTENT RESET TO RESIDUAL OF  0.10000E+00
 INITIAL WATER CONTENT IS LESS THAN RESIDUAL WATER CONTENT FOR STREAM SEGMENT:     1 REACH:    39 INITIAL WATER CONTENT RESET TO RESIDUAL OF  0.10000E+00
 INITIAL WATER CONTENT IS LESS THAN RESIDUAL WATER CONTENT FOR STREAM SEGMENT:     1 REACH:    40 INITIAL WATER CONTENT RESET TO RESIDUAL OF  0.10000E+00
 INITIAL WATER CONTENT IS LESS THAN RESIDUAL WATER CONTENT FOR STREAM SEGMENT:     1 REACH:    41 INITIAL WATER CONTENT RESET TO RESIDUAL OF  0.10000E+00
 INITIAL WATER CONTENT IS LESS THAN RESIDUAL WATER CONTENT FOR STREAM SEGMENT:     1 REACH:    42 INITIAL WATER CONTENT RESET TO RESIDUAL OF  0.10000E+00
 INITIAL WATER CONTENT IS LESS THAN RESIDUAL WATER CONTENT FOR STREAM SEGMENT:     1 REACH:    43 INITIAL WATER CONTENT RESET TO RESIDUAL OF  0.10000E+00
 INITIAL WATER CONTENT IS LESS THAN RESIDUAL WATER CONTENT FOR STREAM SEGMENT:     1 REACH:    44 INITIAL WATER CONTENT RESET TO RESIDUAL OF  0.10000E+00
 INITIAL WATER CONTENT IS LESS THAN RESIDUAL WATER CONTENT FOR STREAM SEGMENT:     1 REACH:    45 INITIAL WATER CONTENT RESET TO RESIDUAL OF  0.10000E+00
 INITIAL WATER CONTENT IS LESS THAN RESIDUAL WATER CONTENT FOR STREAM SEGMENT:     1 REACH:    46 INITIAL WATER CONTENT RESET TO RESIDUAL OF  0.10000E+00
 INITIAL WATER CONTENT IS LESS THAN RESIDUAL WATER CONTENT FOR STREAM SEGMENT:     1 REACH:    47 INITIAL WATER CONTENT RESET TO RESIDUAL OF  0.10000E+00
 INITIAL WATER CONTENT IS LESS THAN RESIDUAL WATER CONTENT FOR STREAM SEGMENT:     1 REACH:    48 INITIAL WATER CONTENT RESET TO RESIDUAL OF  0.10000E+00
 INITIAL WATER CONTENT IS LESS THAN RESIDUAL WATER CONTENT FOR STREAM SEGMENT:     1 REACH:    49 INITIAL WATER CONTENT RESET TO RESIDUAL OF  0.10000E+00
 INITIAL WATER CONTENT IS LESS THAN RESIDUAL WATER CONTENT FOR STREAM SEGMENT:     1 REACH:    50 INITIAL WATER CONTENT RESET TO RESIDUAL OF  0.10000E+00
 INITIAL WATER CONTENT IS LESS THAN RESIDUAL WATER CONTENT FOR STREAM SEGMENT:     1 REACH:    51 INITIAL WATER CONTENT RESET TO RESIDUAL OF  0.10000E+00
 INITIAL WATER CONTENT IS LESS THAN RESIDUAL WATER CONTENT FOR STREAM SEGMENT:     1 REACH:    52 INITIAL WATER CONTENT RESET TO RESIDUAL OF  0.10000E+00
 INITIAL WATER CONTENT IS LESS THAN RESIDUAL WATER CONTENT FOR STREAM SEGMENT:     1 REACH:    53 INITIAL WATER CONTENT RESET TO RESIDUAL OF  0.10000E+00
 INITIAL WATER CONTENT IS LESS THAN RESIDUAL WATER CONTENT FOR STREAM SEGMENT:     1 REACH:    54 INITIAL WATER CONTENT RESET TO RESIDUAL OF  0.10000E+00
 INITIAL WATER CONTENT IS LESS THAN RESIDUAL WATER CONTENT FOR STREAM SEGMENT:     1 REACH:    55 INITIAL WATER CONTENT RESET TO RESIDUAL OF  0.10000E+00
 INITIAL WATER CONTENT IS LESS THAN RESIDUAL WATER CONTENT FOR STREAM SEGMENT:     1 REACH:    56 INITIAL WATER CONTENT RESET TO RESIDUAL OF  0.10000E+00
 INITIAL WATER CONTENT IS LESS THAN RESIDUAL WATER CONTENT FOR STREAM SEGMENT:     1 REACH:    57 INITIAL WATER CONTENT RESET TO RESIDUAL OF  0.10000E+00
 INITIAL WATER CONTENT IS LESS THAN RESIDUAL WATER CONTENT FOR STREAM SEGMENT:     1 REACH:    58 INITIAL WATER CONTENT RESET TO RESIDUAL OF  0.10000E+00
 INITIAL WATER CONTENT IS LESS THAN RESIDUAL WATER CONTENT FOR STREAM SEGMENT:     1 REACH:    59 INITIAL WATER CONTENT RESET TO RESIDUAL OF  0.10000E+00
 INITIAL WATER CONTENT IS LESS THAN RESIDUAL WATER CONTENT FOR STREAM SEGMENT:     1 REACH:    60 INITIAL WATER CONTENT RESET TO RESIDUAL OF  0.10000E+00
 INITIAL WATER CONTENT IS LESS THAN RESIDUAL WATER CONTENT FOR STREAM SEGMENT:     1 REACH:    61 INITIAL WATER CONTENT RESET TO RESIDUAL OF  0.10000E+00
 INITIAL WATER CONTENT IS LESS THAN RESIDUAL WATER CONTENT FOR STREAM SEGMENT:     1 REACH:    62 INITIAL WATER CONTENT RESET TO RESIDUAL OF  0.10000E+00
 INITIAL WATER CONTENT IS LESS THAN RESIDUAL WATER CONTENT FOR STREAM SEGMENT:     1 REACH:    63 INITIAL WATER CONTENT RESET TO RESIDUAL OF  0.10000E+00
 INITIAL WATER CONTENT IS LESS THAN RESIDUAL WATER CONTENT FOR STREAM SEGMENT:     1 REACH:    64 INITIAL WATER CONTENT RESET TO RESIDUAL OF  0.10000E+00
 INITIAL WATER CONTENT IS LESS THAN RESIDUAL WATER CONTENT FOR STREAM SEGMENT:     1 REACH:    65 INITIAL WATER CONTENT RESET TO RESIDUAL OF  0.10000E+00
 INITIAL WATER CONTENT IS LESS THAN RESIDUAL WATER CONTENT FOR STREAM SEGMENT:     1 REACH:    66 INITIAL WATER CONTENT RESET TO RESIDUAL OF  0.10000E+00
 INITIAL WATER CONTENT IS LESS THAN RESIDUAL WATER CONTENT FOR STREAM SEGMENT:     1 REACH:    67 INITIAL WATER CONTENT RESET TO RESIDUAL OF  0.10000E+00
 INITIAL WATER CONTENT IS LESS THAN RESIDUAL WATER CONTENT FOR STREAM SEGMENT:     1 REACH:    68 INITIAL WATER CONTENT RESET TO RESIDUAL OF  0.10000E+00
 INITIAL WATER CONTENT IS LESS THAN RESIDUAL WATER CONTENT FOR STREAM SEGMENT:     1 REACH:    69 INITIAL WATER CONTENT RESET TO RESIDUAL OF  0.10000E+00
 INITIAL WATER CONTENT IS LESS THAN RESIDUAL WATER CONTENT FOR STREAM SEGMENT:     1 REACH:    70 INITIAL WATER CONTENT RESET TO RESIDUAL OF  0.10000E+00
 INITIAL WATER CONTENT IS LESS THAN RESIDUAL WATER CONTENT FOR STREAM SEGMENT:     1 REACH:    71 INITIAL WATER CONTENT RESET TO RESIDUAL OF  0.10000E+00
 INITIAL WATER CONTENT IS LESS THAN RESIDUAL WATER CONTENT FOR STREAM SEGMENT:     1 REACH:    72 INITIAL WATER CONTENT RESET TO RESIDUAL OF  0.10000E+00
 INITIAL WATER CONTENT IS LESS THAN RESIDUAL WATER CONTENT FOR STREAM SEGMENT:     1 REACH:    73 INITIAL WATER CONTENT RESET TO RESIDUAL OF  0.10000E+00
 INITIAL WATER CONTENT IS LESS THAN RESIDUAL WATER CONTENT FOR STREAM SEGMENT:     1 REACH:    74 INITIAL WATER CONTENT RESET TO RESIDUAL OF  0.10000E+00
 INITIAL WATER CONTENT IS LESS THAN RESIDUAL WATER CONTENT FOR STREAM SEGMENT:     1 REACH:    75 INITIAL WATER CONTENT RESET TO RESIDUAL OF  0.10000E+00
 INITIAL WATER CONTENT IS LESS THAN RESIDUAL WATER CONTENT FOR STREAM SEGMENT:     1 REACH:    76 INITIAL WATER CONTENT RESET TO RESIDUAL OF  0.10000E+00
 INITIAL WATER CONTENT IS LESS THAN RESIDUAL WATER CONTENT FOR STREAM SEGMENT:     1 REACH:    77 INITIAL WATER CONTENT RESET TO RESIDUAL OF  0.10000E+00
 INITIAL WATER CONTENT IS LESS THAN RESIDUAL WATER CONTENT FOR STREAM SEGMENT:     1 REACH:    78 INITIAL WATER CONTENT RESET TO RESIDUAL OF  0.10000E+00
 INITIAL WATER CONTENT IS LESS THAN RESIDUAL WATER CONTENT FOR STREAM SEGMENT:     1 REACH:    79 INITIAL WATER CONTENT RESET TO RESIDUAL OF  0.10000E+00
 INITIAL WATER CONTENT IS LESS THAN RESIDUAL WATER CONTENT FOR STREAM SEGMENT:     1 REACH:    80 INITIAL WATER CONTENT RESET TO RESIDUAL OF  0.10000E+00
 INITIAL WATER CONTENT IS LESS THAN RESIDUAL WATER CONTENT FOR STREAM SEGMENT:     1 REACH:    81 INITIAL WATER CONTENT RESET TO RESIDUAL OF  0.10000E+00
 INITIAL WATER CONTENT IS LESS THAN RESIDUAL WATER CONTENT FOR STREAM SEGMENT:     1 REACH:    82 INITIAL WATER CONTENT RESET TO RESIDUAL OF  0.10000E+00
 INITIAL WATER CONTENT IS LESS THAN RESIDUAL WATER CONTENT FOR STREAM SEGMENT:     1 REACH:    83 INITIAL WATER CONTENT RESET TO RESIDUAL OF  0.10000E+00
 INITIAL WATER CONTENT IS LESS THAN RESIDUAL WATER CONTENT FOR STREAM SEGMENT:     1 REACH:    84 INITIAL WATER CONTENT RESET TO RESIDUAL OF  0.10000E+00
 INITIAL WATER CONTENT IS LESS THAN RESIDUAL WATER CONTENT FOR STREAM SEGMENT:     1 REACH:    85 INITIAL WATER CONTENT RESET TO RESIDUAL OF  0.10000E+00
 INITIAL WATER CONTENT IS LESS THAN RESIDUAL WATER CONTENT FOR STREAM SEGMENT:     1 REACH:    86 INITIAL WATER CONTENT RESET TO RESIDUAL OF  0.10000E+00
 INITIAL WATER CONTENT IS LESS THAN RESIDUAL WATER CONTENT FOR STREAM SEGMENT:     1 REACH:    87 INITIAL WATER CONTENT RESET TO RESIDUAL OF  0.10000E+00
 INITIAL WATER CONTENT IS LESS THAN RESIDUAL WATER CONTENT FOR STREAM SEGMENT:     1 REACH:    88 INITIAL WATER CONTENT RESET TO RESIDUAL OF  0.10000E+00
 INITIAL WATER CONTENT IS LESS THAN RESIDUAL WATER CONTENT FOR STREAM SEGMENT:     1 REACH:    89 INITIAL WATER CONTENT RESET TO RESIDUAL OF  0.10000E+00
 INITIAL WATER CONTENT IS LESS THAN RESIDUAL WATER CONTENT FOR STREAM SEGMENT:     1 REACH:    90 INITIAL WATER CONTENT RESET TO RESIDUAL OF  0.10000E+00
 INITIAL WATER CONTENT IS LESS THAN RESIDUAL WATER CONTENT FOR STREAM SEGMENT:     1 REACH:    91 INITIAL WATER CONTENT RESET TO RESIDUAL OF  0.10000E+00
 INITIAL WATER CONTENT IS LESS THAN RESIDUAL WATER CONTENT FOR STREAM SEGMENT:     1 REACH:    92 INITIAL WATER CONTENT RESET TO RESIDUAL OF  0.10000E+00
 INITIAL WATER CONTENT IS LESS THAN RESIDUAL WATER CONTENT FOR STREAM SEGMENT:     1 REACH:    93 INITIAL WATER CONTENT RESET TO RESIDUAL OF  0.10000E+00
 INITIAL WATER CONTENT IS LESS THAN RESIDUAL WATER CONTENT FOR STREAM SEGMENT:     1 REACH:    94 INITIAL WATER CONTENT RESET TO RESIDUAL OF  0.10000E+00
 INITIAL WATER CONTENT IS LESS THAN RESIDUAL WATER CONTENT FOR STREAM SEGMENT:     1 REACH:    95 INITIAL WATER CONTENT RESET TO RESIDUAL OF  0.10000E+00
 INITIAL WATER CONTENT IS LESS THAN RESIDUAL WATER CONTENT FOR STREAM SEGMENT:     1 REACH:    96 INITIAL WATER CONTENT RESET TO RESIDUAL OF  0.10000E+00
 INITIAL WATER CONTENT IS LESS THAN RESIDUAL WATER CONTENT FOR STREAM SEGMENT:     1 REACH:    97 INITIAL WATER CONTENT RESET TO RESIDUAL OF  0.10000E+00
 INITIAL WATER CONTENT IS LESS THAN RESIDUAL WATER CONTENT FOR STREAM SEGMENT:     1 REACH:    98 INITIAL WATER CONTENT RESET TO RESIDUAL OF  0.10000E+00
 INITIAL WATER CONTENT IS LESS THAN RESIDUAL WATER CONTENT FOR STREAM SEGMENT:     1 REACH:    99 INITIAL WATER CONTENT RESET TO RESIDUAL OF  0.10000E+00
 INITIAL WATER CONTENT IS LESS THAN RESIDUAL WATER CONTENT FOR STREAM SEGMENT:     1 REACH:   100 INITIAL WATER CONTENT RESET TO RESIDUAL OF  0.10000E+00






   8 GAGING STATIONS WERE SPECIFIED.
     (Lakes are identified by a negative value of the Lake Number)
     RECORDS WILL BE WRITTEN TO SEPARATE OUTPUT FILES REPRESENTED BY FOLLOWING UNIT NUMBERS:

 Stream Gages:
  GAGE #   SEGMENT   REACH   UNIT   OUTTYPE
       1       1      20      83       6
       2       1      20      84       7
       3       1      40      85       6
       4       1      40      86       7
       5       1      60      87       6
       6       1      60      88       7
       7       1      80      89       6
       8       1      80      90       7





 PCG -- CONJUGATE-GRADIENT SOLUTION PACKAGE, VERSION 7, 5/2/2005
 # PCG Package input file for hypothetical test simulation
 # Test of SFR2 Package
 MAXIMUM OF    300 CALLS OF SOLUTION ROUTINE
 MAXIMUM OF     20 INTERNAL ITERATIONS PER CALL TO SOLUTION ROUTINE
 MATRIX PRECONDITIONING TYPE :    1



                                    SOLUTION BY THE CONJUGATE-GRADIENT METHOD
                                   -------------------------------------------
                    MAXIMUM NUMBER OF CALLS TO PCG ROUTINE =      300
                        MAXIMUM ITERATIONS PER CALL TO PCG =       20
                               MATRIX PRECONDITIONING TYPE =        1
        RELAXATION FACTOR (ONLY USED WITH PRECOND. TYPE 1) =    0.90000E+00
 PARAMETER OF POLYNOMIAL PRECOND. = 2 (2) OR IS CALCULATED :        2
                         HEAD CHANGE CRITERION FOR CLOSURE =    0.10000E-05
                     RESIDUAL CHANGE CRITERION FOR CLOSURE =    0.10000E-04
            PCG HEAD AND RESIDUAL CHANGE PRINTOUT INTERVAL =      999
     PRINTING FROM SOLVER IS LIMITED(1) OR SUPPRESSED (>1) =        3
                            STEADY-STATE DAMPING PARAMETER =    0.96000E+00
                               TRANSIENT DAMPING PARAMETER =    0.96000E+00
1
                            STRESS PERIOD NO.    1, LENGTH =   2592000.    
                            -----------------------------------------------

                              NUMBER OF TIME STEPS =    30

                               MULTIPLIER FOR DELT =     1.100

                            INITIAL TIME STEP SIZE =   15757.40    

 BOUND. NO. LAYER   ROW   COL     STAGE      CONDUCTANCE         
 ----------------------------------------------------------------
      1      1      1      1       125.0           4.100    
      2      1      2      1       125.0           4.100    
      3      1      3      1       125.0           4.100    
      4      1      4      1       125.0           4.100    
      5      1      5      1       125.0           4.100    
      6      1      6      1       125.0           4.100    
      7      1      7      1       125.0           4.100    

      7 GHB CELLS



 CLASSIFICATION & COUNT OF STREAM SEGMENTS BASED ON SOURCE OF INFLOW:

                HEADWATER     DIVERSION     RECEIVES TRIBUTARY FLOW
                ---------     ---------     -----------------------
                     1              0               0



                    INPUT DATA FOR EACH STREAM SEGMENT
 ---------------------------------------------------------------------------------------------

 SEGMENT    SEG.     INFLOW   OVERLAND   STREAM    STREAM   ICALC  OUTFLOW  DIVERSION PRIORITY
    NO.    LENGTH     RATE     RUNOFF      ET       PPT.    METH.  TO SEG.  FROM SEG.    NO.

      1  2.000E+04 3.000E-01 0.000E+00 0.000E+00 0.000E+00    2        0        0        0


         STREAMBED PROPERTIES AND STREAM DIMENSIONS

 SEGMENT     BED HYD. COND.      BED THICKNESS     ELEV.-TOP OF BED     WIDTH OF STREAM     DEPTH OF STREAM    STREAM ROUGHNESS    SAT. WATER CONT.    INT. WATER CONT.    BROOKS/COREY EPS.     UNSAT. HYD. COND.
    No.     UPPER     LOWER     UPPER     LOWER     UPPER     LOWER     UPPER     LOWER     UPPER     LOWER   CHANNEL      BANK     UPPER     LOWER     UPPER     LOWER     UPPER     LOWER     UPPER

     1  3.500E-07 3.500E-07 5.000E-01 5.000E-01 1.400E+02 1.100E+02                                         3.000E-02 4.000E-02 3.000E-01 3.000E-01 1.000E-01 1.000E-01 3.500E+00 3.500E+00 6.000E-06 6.000E-06

  EIGHT POINT CROSS-SECTION DATA FOR SEGMENTS WITH ICALC = 2
    X VALUES X VALUES START FROM LEFT SIDE LOOKING DOWNSTREAM

     SEGMENT NO.        X1        X2        X3        X4        X5        X6        X7        X8
            1      0.000E+00 2.000E+00 4.000E+00 6.000E+00 8.000E+00 1.000E+01 1.200E+01 1.400E+01

    Z VALUES ARE RELATIVE TO STREAMBED ELEVATION

     SEGMENT NO.          Z1        Z2        Z3        Z4        Z5        Z6        Z7        Z8
            1      6.000E+00 4.500E+00 3.500E+00 0.000E+00 3.000E-01 3.500E+00 4.500E+00 6.000E+00




 SOLVING FOR HEAD 

 NO OUTPUT CONTROL FOR STRESS PERIOD    1   TIME STEP    1

 SOLVING FOR HEAD 

 NO OUTPUT CONTROL FOR STRESS PERIOD    1   TIME STEP    2

 SOLVING FOR HEAD 

 NO OUTPUT CONTROL FOR STRESS PERIOD    1   TIME STEP    3

 SOLVING FOR HEAD 

 NO OUTPUT CONTROL FOR STRESS PERIOD    1   TIME STEP    4

 SOLVING FOR HEAD 

 NO OUTPUT CONTROL FOR STRESS PERIOD    1   TIME STEP    5

 SOLVING FOR HEAD 

 NO OUTPUT CONTROL FOR STRESS PERIOD    1   TIME STEP    6

 SOLVING FOR HEAD 

 NO OUTPUT CONTROL FOR STRESS PERIOD    1   TIME STEP    7

 SOLVING FOR HEAD 

 NO OUTPUT CONTROL FOR STRESS PERIOD    1   TIME STEP    8

 SOLVING FOR HEAD 

 NO OUTPUT CONTROL FOR STRESS PERIOD    1   TIME STEP    9

 SOLVING FOR HEAD 

 OUTPUT CONTROL FOR STRESS PERIOD    1   TIME STEP   10
    PRINT HEAD FOR ALL LAYERS
    PRINT BUDGET
    SAVE BUDGET

  HEAD DEP BOUNDS   PERIOD    1   STEP  10
 BOUNDARY      1   LAYER   1   ROW     1   COL     1   RATE    0.296611    
 BOUNDARY      2   LAYER   1   ROW     2   COL     1   RATE    0.296369    
 BOUNDARY      3   LAYER   1   ROW     3   COL     1   RATE    0.291526    
 BOUNDARY      4   LAYER   1   ROW     4   COL     1   RATE    0.208961    
 BOUNDARY      5   LAYER   1   ROW     5   COL     1   RATE    0.291526    
 BOUNDARY      6   LAYER   1   ROW     6   COL     1   RATE    0.296369    
 BOUNDARY      7   LAYER   1   ROW     7   COL     1   RATE    0.296611    



 STREAM LISTING     PERIOD      1   STEP       10

 LAYER ROW COL. STREAM  RCH.   FLOW INTO    STREAM     FLOW OUT OF   OVRLND.    DIRECT     STREAM      STREAM      STREAM     STREAM  STREAMBED   FLOW TO   CHNG. UNSAT. 
                SEG.NO.  NO.   STRM. RCH.    LOSS       STRM. RCH.   RUNOFF     PRECIP       ET         HEAD        DEPTH      WIDTH  CONDCTNC.   WAT. TAB.

   1    4    1     1     1    3.0000E-01  3.4737E-04   2.9965E-01  0.000E+00  0.000E+00  0.000E+00  1.40279E+02  4.294E-01  2.326E+00  3.737E-04  0.000E+00  3.474E-04
   1    4    2     1     2    2.9965E-01  3.4724E-04   2.9931E-01  0.000E+00  0.000E+00  0.000E+00  1.39979E+02  4.292E-01  2.326E+00  3.737E-04  0.000E+00  3.472E-04
   1    4    3     1     3    2.9931E-01  3.4710E-04   2.9896E-01  0.000E+00  0.000E+00  0.000E+00  1.39679E+02  4.290E-01  2.326E+00  3.736E-04  0.000E+00  3.471E-04
   1    4    4     1     4    2.9896E-01  3.4696E-04   2.9861E-01  0.000E+00  0.000E+00  0.000E+00  1.39379E+02  4.288E-01  2.326E+00  3.735E-04  0.000E+00  3.470E-04
   1    4    5     1     5    2.9861E-01  3.4682E-04   2.9826E-01  0.000E+00  0.000E+00  0.000E+00  1.39079E+02  4.286E-01  2.325E+00  3.735E-04  0.000E+00  3.468E-04
   1    4    6     1     6    2.9826E-01  3.4669E-04   2.9792E-01  0.000E+00  0.000E+00  0.000E+00  1.38778E+02  4.284E-01  2.325E+00  3.734E-04  0.000E+00  3.467E-04
   1    4    7     1     7    2.9792E-01  3.4655E-04   2.9757E-01  0.000E+00  0.000E+00  0.000E+00  1.38478E+02  4.282E-01  2.325E+00  3.733E-04  0.000E+00  3.466E-04
   1    4    8     1     8    2.9757E-01  3.4641E-04   2.9722E-01  0.000E+00  0.000E+00  0.000E+00  1.38178E+02  4.280E-01  2.325E+00  3.733E-04  0.000E+00  3.464E-04
   1    4    9     1     9    2.9722E-01  3.4628E-04   2.9688E-01  0.000E+00  0.000E+00  0.000E+00  1.37878E+02  4.278E-01  2.324E+00  3.732E-04  0.000E+00  3.463E-04
   1    4   10     1    10    2.9688E-01  3.4614E-04   2.9653E-01  0.000E+00  0.000E+00  0.000E+00  1.37578E+02  4.276E-01  2.324E+00  3.732E-04  0.000E+00  3.461E-04
   1    4   11     1    11    2.9653E-01  3.4600E-04   2.9619E-01  0.000E+00  0.000E+00  0.000E+00  1.37277E+02  4.274E-01  2.324E+00  3.731E-04  0.000E+00  3.460E-04
   1    4   12     1    12    2.9619E-01  3.4586E-04   2.9584E-01  0.000E+00  0.000E+00  0.000E+00  1.36977E+02  4.272E-01  2.324E+00  3.730E-04  0.000E+00  3.459E-04
   1    4   13     1    13    2.9584E-01  3.4573E-04   2.9549E-01  0.000E+00  0.000E+00  0.000E+00  1.36677E+02  4.270E-01  2.323E+00  3.730E-04  0.000E+00  3.457E-04
   1    4   14     1    14    2.9549E-01  3.4559E-04   2.9515E-01  0.000E+00  0.000E+00  0.000E+00  1.36377E+02  4.268E-01  2.323E+00  3.729E-04  0.000E+00  3.456E-04
   1    4   15     1    15    2.9515E-01  3.4545E-04   2.9480E-01  0.000E+00  0.000E+00  0.000E+00  1.36077E+02  4.266E-01  2.323E+00  3.728E-04  0.000E+00  3.455E-04
   1    4   16     1    16    2.9480E-01  3.4531E-04   2.9446E-01  0.000E+00  0.000E+00  0.000E+00  1.35776E+02  4.264E-01  2.323E+00  3.728E-04  0.000E+00  3.453E-04
   1    4   17     1    17    2.9446E-01  3.4518E-04   2.9411E-01  0.000E+00  0.000E+00  0.000E+00  1.35476E+02  4.262E-01  2.322E+00  3.727E-04  0.000E+00  3.452E-04
   1    4   18     1    18    2.9411E-01  3.4504E-04   2.9377E-01  0.000E+00  0.000E+00  0.000E+00  1.35176E+02  4.260E-01  2.322E+00  3.726E-04  0.000E+00  3.450E-04
   1    4   19     1    19    2.9377E-01  3.4490E-04   2.9342E-01  0.000E+00  0.000E+00  0.000E+00  1.34876E+02  4.258E-01  2.322E+00  3.726E-04  0.000E+00  3.449E-04
   1    4   20     1    20    2.9342E-01  3.4477E-04   2.9308E-01  0.000E+00  0.000E+00  0.000E+00  1.34576E+02  4.256E-01  2.322E+00  3.725E-04  0.000E+00  3.448E-04
   1    4   21     1    21    2.9308E-01  3.4463E-04   2.9273E-01  0.000E+00  0.000E+00  0.000E+00  1.34275E+02  4.254E-01  2.321E+00  3.724E-04  0.000E+00  3.446E-04
   1    4   22     1    22    2.9273E-01  3.4449E-04   2.9239E-01  0.000E+00  0.000E+00  0.000E+00  1.33975E+02  4.252E-01  2.321E+00  3.724E-04  0.000E+00  3.445E-04
   1    4   23     1    23    2.9239E-01  3.4435E-04   2.9205E-01  0.000E+00  0.000E+00  0.000E+00  1.33675E+02  4.250E-01  2.321E+00  3.723E-04  0.000E+00  3.444E-04
   1    4   24     1    24    2.9205E-01  3.4422E-04   2.9170E-01  0.000E+00  0.000E+00  0.000E+00  1.33375E+02  4.248E-01  2.321E+00  3.722E-04  0.000E+00  3.442E-04
   1    4   25     1    25    2.9170E-01  3.4408E-04   2.9136E-01  0.000E+00  0.000E+00  0.000E+00  1.33075E+02  4.246E-01  2.320E+00  3.722E-04  0.000E+00  3.441E-04
   1    4   26     1    26    2.9136E-01  3.4394E-04   2.9101E-01  0.000E+00  0.000E+00  0.000E+00  1.32774E+02  4.244E-01  2.320E+00  3.721E-04  0.000E+00  3.439E-04
   1    4   27     1    27    2.9101E-01  3.4381E-04   2.9067E-01  0.000E+00  0.000E+00  0.000E+00  1.32474E+02  4.242E-01  2.320E+00  3.720E-04  0.000E+00  3.438E-04
   1    4   28     1    28    2.9067E-01  3.4367E-04   2.9033E-01  0.000E+00  0.000E+00  0.000E+00  1.32174E+02  4.240E-01  2.320E+00  3.720E-04  0.000E+00  3.437E-04
   1    4   29     1    29    2.9033E-01  3.4353E-04   2.8998E-01  0.000E+00  0.000E+00  0.000E+00  1.31874E+02  4.237E-01  2.319E+00  3.719E-04  0.000E+00  3.435E-04
   1    4   30     1    30    2.8998E-01  3.4339E-04   2.8964E-01  0.000E+00  0.000E+00  0.000E+00  1.31574E+02  4.235E-01  2.319E+00  3.718E-04  0.000E+00  3.434E-04
   1    4   31     1    31    2.8964E-01  3.4326E-04   2.8930E-01  0.000E+00  0.000E+00  0.000E+00  1.31273E+02  4.233E-01  2.319E+00  3.718E-04  0.000E+00  3.433E-04
   1    4   32     1    32    2.8930E-01  3.4312E-04   2.8895E-01  0.000E+00  0.000E+00  0.000E+00  1.30973E+02  4.231E-01  2.319E+00  3.717E-04  0.000E+00  3.431E-04
   1    4   33     1    33    2.8895E-01  3.4298E-04   2.8861E-01  0.000E+00  0.000E+00  0.000E+00  1.30673E+02  4.229E-01  2.319E+00  3.716E-04  0.000E+00  3.430E-04
   1    4   34     1    34    2.8861E-01  3.4285E-04   2.8827E-01  0.000E+00  0.000E+00  0.000E+00  1.30373E+02  4.227E-01  2.318E+00  3.716E-04  0.000E+00  3.428E-04
   1    4   35     1    35    2.8827E-01  3.4271E-04   2.8792E-01  0.000E+00  0.000E+00  0.000E+00  1.30073E+02  4.225E-01  2.318E+00  3.715E-04  0.000E+00  3.427E-04
   1    4   36     1    36    2.8792E-01  3.4257E-04   2.8758E-01  0.000E+00  0.000E+00  0.000E+00  1.29772E+02  4.223E-01  2.318E+00  3.714E-04  0.000E+00  3.426E-04
   1    4   37     1    37    2.8758E-01  3.4244E-04   2.8724E-01  0.000E+00  0.000E+00  0.000E+00  1.29472E+02  4.221E-01  2.318E+00  3.714E-04  0.000E+00  3.424E-04
   1    4   38     1    38    2.8724E-01  3.4230E-04   2.8690E-01  0.000E+00  0.000E+00  0.000E+00  1.29172E+02  4.219E-01  2.317E+00  3.713E-04  0.000E+00  3.423E-04
   1    4   39     1    39    2.8690E-01  3.4216E-04   2.8655E-01  0.000E+00  0.000E+00  0.000E+00  1.28872E+02  4.217E-01  2.317E+00  3.712E-04  0.000E+00  3.422E-04
   1    4   40     1    40    2.8655E-01  3.4203E-04   2.8621E-01  0.000E+00  0.000E+00  0.000E+00  1.28572E+02  4.215E-01  2.317E+00  3.712E-04  0.000E+00  3.420E-04
   1    4   41     1    41    2.8621E-01  3.4189E-04   2.8587E-01  0.000E+00  0.000E+00  0.000E+00  1.28271E+02  4.213E-01  2.317E+00  3.711E-04  0.000E+00  3.419E-04
   1    4   42     1    42    2.8587E-01  3.4175E-04   2.8553E-01  0.000E+00  0.000E+00  0.000E+00  1.27971E+02  4.211E-01  2.316E+00  3.710E-04  0.000E+00  3.418E-04
   1    4   43     1    43    2.8553E-01  3.4162E-04   2.8519E-01  0.000E+00  0.000E+00  0.000E+00  1.27671E+02  4.209E-01  2.316E+00  3.710E-04  0.000E+00  3.416E-04
   1    4   44     1    44    2.8519E-01  3.4148E-04   2.8485E-01  0.000E+00  0.000E+00  0.000E+00  1.27371E+02  4.207E-01  2.316E+00  3.709E-04  0.000E+00  3.415E-04
   1    4   45     1    45    2.8485E-01  3.4134E-04   2.8450E-01  0.000E+00  0.000E+00  0.000E+00  1.27070E+02  4.205E-01  2.316E+00  3.708E-04  0.000E+00  3.413E-04
   1    4   46     1    46    2.8450E-01  3.4121E-04   2.8416E-01  0.000E+00  0.000E+00  0.000E+00  1.26770E+02  4.203E-01  2.315E+00  3.708E-04  0.000E+00  3.412E-04
   1    4   47     1    47    2.8416E-01  3.4107E-04   2.8382E-01  0.000E+00  0.000E+00  0.000E+00  1.26470E+02  4.201E-01  2.315E+00  3.707E-04  0.000E+00  3.411E-04
   1    4   48     1    48    2.8382E-01  3.4093E-04   2.8348E-01  0.000E+00  0.000E+00  0.000E+00  1.26170E+02  4.199E-01  2.315E+00  3.706E-04  0.000E+00  3.409E-04
   1    4   49     1    49    2.8348E-01  3.4080E-04   2.8314E-01  0.000E+00  0.000E+00  0.000E+00  1.25870E+02  4.197E-01  2.315E+00  3.706E-04  0.000E+00  3.408E-04
   1    4   50     1    50    2.8314E-01  3.4066E-04   2.8280E-01  0.000E+00  0.000E+00  0.000E+00  1.25569E+02  4.195E-01  2.314E+00  3.705E-04  0.000E+00  3.407E-04
   1    4   51     1    51    2.8280E-01  3.4052E-04   2.8246E-01  0.000E+00  0.000E+00  0.000E+00  1.25269E+02  4.193E-01  2.314E+00  3.704E-04  0.000E+00  3.405E-04
   1    4   52     1    52    2.8246E-01  3.4039E-04   2.8212E-01  0.000E+00  0.000E+00  0.000E+00  1.24969E+02  4.191E-01  2.314E+00  3.704E-04  0.000E+00  3.404E-04
   1    4   53     1    53    2.8212E-01  3.4025E-04   2.8178E-01  0.000E+00  0.000E+00  0.000E+00  1.24669E+02  4.189E-01  2.314E+00  3.703E-04  0.000E+00  3.402E-04
   1    4   54     1    54    2.8178E-01  3.4011E-04   2.8144E-01  0.000E+00  0.000E+00  0.000E+00  1.24369E+02  4.187E-01  2.313E+00  3.702E-04  0.000E+00  3.401E-04
   1    4   55     1    55    2.8144E-01  3.3998E-04   2.8110E-01  0.000E+00  0.000E+00  0.000E+00  1.24068E+02  4.185E-01  2.313E+00  3.702E-04  0.000E+00  3.400E-04
   1    4   56     1    56    2.8110E-01  3.3984E-04   2.8076E-01  0.000E+00  0.000E+00  0.000E+00  1.23768E+02  4.182E-01  2.313E+00  3.701E-04  0.000E+00  3.398E-04
   1    4   57     1    57    2.8076E-01  3.3970E-04   2.8042E-01  0.000E+00  0.000E+00  0.000E+00  1.23468E+02  4.180E-01  2.313E+00  3.700E-04  0.000E+00  3.397E-04
   1    4   58     1    58    2.8042E-01  3.3957E-04   2.8008E-01  0.000E+00  0.000E+00  0.000E+00  1.23168E+02  4.178E-01  2.312E+00  3.700E-04  0.000E+00  3.396E-04
   1    4   59     1    59    2.8008E-01  3.3943E-04   2.7974E-01  0.000E+00  0.000E+00  0.000E+00  1.22868E+02  4.176E-01  2.312E+00  3.699E-04  0.000E+00  3.394E-04
   1    4   60     1    60    2.7974E-01  3.3929E-04   2.7940E-01  0.000E+00  0.000E+00  0.000E+00  1.22567E+02  4.174E-01  2.312E+00  3.698E-04  0.000E+00  3.393E-04
   1    4   61     1    61    2.7940E-01  3.3916E-04   2.7906E-01  0.000E+00  0.000E+00  0.000E+00  1.22267E+02  4.172E-01  2.312E+00  3.698E-04  0.000E+00  3.392E-04
   1    4   62     1    62    2.7906E-01  3.3902E-04   2.7872E-01  0.000E+00  0.000E+00  0.000E+00  1.21967E+02  4.170E-01  2.311E+00  3.697E-04  0.000E+00  3.390E-04
   1    4   63     1    63    2.7872E-01  3.3889E-04   2.7838E-01  0.000E+00  0.000E+00  0.000E+00  1.21667E+02  4.168E-01  2.311E+00  3.696E-04  0.000E+00  3.389E-04
   1    4   64     1    64    2.7838E-01  3.3875E-04   2.7804E-01  0.000E+00  0.000E+00  0.000E+00  1.21367E+02  4.166E-01  2.311E+00  3.696E-04  0.000E+00  3.387E-04
   1    4   65     1    65    2.7804E-01  3.3861E-04   2.7771E-01  0.000E+00  0.000E+00  0.000E+00  1.21066E+02  4.164E-01  2.311E+00  3.695E-04  0.000E+00  3.386E-04
   1    4   66     1    66    2.7771E-01  3.3848E-04   2.7737E-01  0.000E+00  0.000E+00  0.000E+00  1.20766E+02  4.162E-01  2.310E+00  3.694E-04  0.000E+00  3.385E-04
   1    4   67     1    67    2.7737E-01  3.3834E-04   2.7703E-01  0.000E+00  0.000E+00  0.000E+00  1.20466E+02  4.160E-01  2.310E+00  3.694E-04  0.000E+00  3.383E-04
   1    4   68     1    68    2.7703E-01  3.3820E-04   2.7669E-01  0.000E+00  0.000E+00  0.000E+00  1.20166E+02  4.158E-01  2.310E+00  3.693E-04  0.000E+00  3.382E-04
   1    4   69     1    69    2.7669E-01  3.3807E-04   2.7635E-01  0.000E+00  0.000E+00  0.000E+00  1.19866E+02  4.156E-01  2.310E+00  3.692E-04  0.000E+00  3.381E-04
   1    4   70     1    70    2.7635E-01  3.3793E-04   2.7601E-01  0.000E+00  0.000E+00  0.000E+00  1.19565E+02  4.154E-01  2.309E+00  3.692E-04  0.000E+00  3.379E-04
   1    4   71     1    71    2.7601E-01  3.3779E-04   2.7568E-01  0.000E+00  0.000E+00  0.000E+00  1.19265E+02  4.152E-01  2.309E+00  3.691E-04  0.000E+00  3.378E-04
   1    4   72     1    72    2.7568E-01  3.3766E-04   2.7534E-01  0.000E+00  0.000E+00  0.000E+00  1.18965E+02  4.150E-01  2.309E+00  3.690E-04  0.000E+00  3.377E-04
   1    4   73     1    73    2.7534E-01  3.3752E-04   2.7500E-01  0.000E+00  0.000E+00  0.000E+00  1.18665E+02  4.148E-01  2.309E+00  3.690E-04  0.000E+00  3.375E-04
   1    4   74     1    74    2.7500E-01  3.3739E-04   2.7466E-01  0.000E+00  0.000E+00  0.000E+00  1.18365E+02  4.146E-01  2.309E+00  3.689E-04  0.000E+00  3.374E-04
   1    4   75     1    75    2.7466E-01  3.3725E-04   2.7433E-01  0.000E+00  0.000E+00  0.000E+00  1.18064E+02  4.144E-01  2.308E+00  3.688E-04  0.000E+00  3.373E-04
   1    4   76     1    76    2.7433E-01  3.3711E-04   2.7399E-01  0.000E+00  0.000E+00  0.000E+00  1.17764E+02  4.142E-01  2.308E+00  3.688E-04  0.000E+00  3.371E-04
   1    4   77     1    77    2.7399E-01  3.3698E-04   2.7365E-01  0.000E+00  0.000E+00  0.000E+00  1.17464E+02  4.140E-01  2.308E+00  3.687E-04  0.000E+00  3.370E-04
   1    4   78     1    78    2.7365E-01  3.3684E-04   2.7332E-01  0.000E+00  0.000E+00  0.000E+00  1.17164E+02  4.138E-01  2.308E+00  3.686E-04  0.000E+00  3.368E-04
   1    4   79     1    79    2.7332E-01  3.3671E-04   2.7298E-01  0.000E+00  0.000E+00  0.000E+00  1.16864E+02  4.136E-01  2.307E+00  3.686E-04  0.000E+00  3.367E-04
   1    4   80     1    80    2.7298E-01  3.3657E-04   2.7264E-01  0.000E+00  0.000E+00  0.000E+00  1.16563E+02  4.134E-01  2.307E+00  3.685E-04  0.000E+00  3.366E-04
   1    4   81     1    81    2.7264E-01  3.3643E-04   2.7231E-01  0.000E+00  0.000E+00  0.000E+00  1.16263E+02  4.132E-01  2.307E+00  3.684E-04  0.000E+00  3.364E-04
   1    4   82     1    82    2.7231E-01  3.3630E-04   2.7197E-01  0.000E+00  0.000E+00  0.000E+00  1.15963E+02  4.129E-01  2.307E+00  3.684E-04  0.000E+00  3.363E-04
   1    4   83     1    83    2.7197E-01  3.3616E-04   2.7163E-01  0.000E+00  0.000E+00  0.000E+00  1.15663E+02  4.127E-01  2.306E+00  3.683E-04  0.000E+00  3.362E-04
   1    4   84     1    84    2.7163E-01  3.3603E-04   2.7130E-01  0.000E+00  0.000E+00  0.000E+00  1.15363E+02  4.125E-01  2.306E+00  3.682E-04  0.000E+00  3.360E-04
   1    4   85     1    85    2.7130E-01  3.3589E-04   2.7096E-01  0.000E+00  0.000E+00  0.000E+00  1.15062E+02  4.123E-01  2.306E+00  3.682E-04  0.000E+00  3.359E-04
   1    4   86     1    86    2.7096E-01  3.3575E-04   2.7063E-01  0.000E+00  0.000E+00  0.000E+00  1.14762E+02  4.121E-01  2.306E+00  3.681E-04  0.000E+00  3.358E-04
   1    4   87     1    87    2.7063E-01  3.3562E-04   2.7029E-01  0.000E+00  0.000E+00  0.000E+00  1.14462E+02  4.119E-01  2.305E+00  3.680E-04  0.000E+00  3.356E-04
   1    4   88     1    88    2.7029E-01  3.3548E-04   2.6996E-01  0.000E+00  0.000E+00  0.000E+00  1.14162E+02  4.117E-01  2.305E+00  3.680E-04  0.000E+00  3.355E-04
   1    4   89     1    89    2.6996E-01  3.3535E-04   2.6962E-01  0.000E+00  0.000E+00  0.000E+00  1.13862E+02  4.115E-01  2.305E+00  3.679E-04  0.000E+00  3.353E-04
   1    4   90     1    90    2.6962E-01  3.3521E-04   2.6928E-01  0.000E+00  0.000E+00  0.000E+00  1.13561E+02  4.113E-01  2.305E+00  3.678E-04  0.000E+00  3.352E-04
   1    4   91     1    91    2.6928E-01  3.3507E-04   2.6895E-01  0.000E+00  0.000E+00  0.000E+00  1.13261E+02  4.111E-01  2.304E+00  3.678E-04  0.000E+00  3.351E-04
   1    4   92     1    92    2.6895E-01  3.3494E-04   2.6861E-01  0.000E+00  0.000E+00  0.000E+00  1.12961E+02  4.109E-01  2.304E+00  3.677E-04  0.000E+00  3.349E-04
   1    4   93     1    93    2.6861E-01  3.3480E-04   2.6828E-01  0.000E+00  0.000E+00  0.000E+00  1.12661E+02  4.107E-01  2.304E+00  3.676E-04  0.000E+00  3.348E-04
   1    4   94     1    94    2.6828E-01  3.3467E-04   2.6795E-01  0.000E+00  0.000E+00  0.000E+00  1.12360E+02  4.105E-01  2.304E+00  3.676E-04  0.000E+00  3.347E-04
   1    4   95     1    95    2.6795E-01  3.3453E-04   2.6761E-01  0.000E+00  0.000E+00  0.000E+00  1.12060E+02  4.103E-01  2.303E+00  3.675E-04  0.000E+00  3.345E-04
   1    4   96     1    96    2.6761E-01  3.3440E-04   2.6728E-01  0.000E+00  0.000E+00  0.000E+00  1.11760E+02  4.101E-01  2.303E+00  3.674E-04  0.000E+00  3.344E-04
   1    4   97     1    97    2.6728E-01  3.3426E-04   2.6694E-01  0.000E+00  0.000E+00  0.000E+00  1.11460E+02  4.099E-01  2.303E+00  3.674E-04  0.000E+00  3.343E-04
   1    4   98     1    98    2.6694E-01  3.3412E-04   2.6661E-01  0.000E+00  0.000E+00  0.000E+00  1.11160E+02  4.097E-01  2.303E+00  3.673E-04  0.000E+00  3.341E-04
   1    4   99     1    99    2.6661E-01  3.3399E-04   2.6627E-01  0.000E+00  0.000E+00  0.000E+00  1.10859E+02  4.095E-01  2.302E+00  3.672E-04  0.000E+00  3.340E-04
   1    4  100     1   100    2.6627E-01  3.3385E-04   2.6594E-01  0.000E+00  0.000E+00  0.000E+00  1.10559E+02  4.093E-01  2.302E+00  3.672E-04  0.000E+00  3.339E-04



1
  VOLUMETRIC BUDGET FOR UNSATURATED ZONE BENEATH STREAMS AT END OF TIME STEP    10 STRESS PERIOD   1
  ------------------------------------------------------------------------------------------------

    CUMULATIVE VOLUMES             L**3    RATES FOR THIS TIME STEP         L**3/T
    ------------------                     ------------------------


          STREAM LOSS =         8553.5381            STREAM LOSS =        3.4060E-02
    CHANGE IN STORAGE =         8553.5381      CHANGE IN STORAGE =        3.4060E-02
       RECHARGE TO GW =            0.0000         RECHARGE TO GW =            0.0000

             TOTAL IN =         8553.5381               TOTAL IN =        3.4060E-02

            TOTAL OUT =         8553.5381              TOTAL OUT =        3.4060E-02

             IN - OUT =            0.0000               IN - OUT =       -3.7253E-09

  PERCENT DISCREPANCY =            0.00      PERCENT DISCREPANCY =            -0.00



1
              HEAD IN LAYER   1 AT END OF TIME STEP  10 IN STRESS PERIOD    1
  ---------------------------------------------------------------------------

          1      2      3      4      5      6      7      8      9     10
         11     12     13     14     15     16     17     18     19     20
         21     22     23     24     25     26     27     28     29     30
         31     32     33     34     35     36     37     38     39     40
         41     42     43     44     45     46     47     48     49     50
         51     52     53     54     55     56     57     58     59     60
         61     62     63     64     65     66     67     68     69     70
         71     72     73     74     75     76     77     78     79     80
         81     82     83     84     85     86     87     88     89     90
         91     92     93     94     95     96     97     98     99    100
 .........................................................................
   1   124.9  118.2  112.4  108.3  106.0  104.9  104.3  104.1  104.0  104.0
       104.0  104.0  104.0  104.0  104.0  104.0  104.0  104.0  104.0  104.0
       104.0  104.0  104.0  104.0  104.0  104.0  104.0  104.0  104.0  104.0
       104.0  104.0  104.0  104.0  104.0  104.0  104.0  104.0  104.0  104.0
       104.0  104.0  104.0  104.0  104.0  104.0  104.0  104.0  104.0  104.0
       104.0  104.0  104.0  104.0  104.0  104.0  104.0  104.0  104.0  104.0
       104.0  104.0  104.0  104.0  104.0  104.0  104.0  104.0  104.0  104.0
       104.0  104.0  104.0  104.0  104.0  104.0  104.0  104.0  104.0  104.0
       104.0  104.0  104.0  104.0  104.0  104.0  104.0  104.0  104.0  104.0
       104.0  104.0  104.0  104.0  104.0  104.0  104.0  104.0  104.0  104.0
   2   124.9  118.2  112.4  108.3  106.0  104.9  104.3  104.1  104.0  104.0
       104.0  104.0  104.0  104.0  104.0  104.0  104.0  104.0  104.0  104.0
       104.0  104.0  104.0  104.0  104.0  104.0  104.0  104.0  104.0  104.0
       104.0  104.0  104.0  104.0  104.0  104.0  104.0  104.0  104.0  104.0
       104.0  104.0  104.0  104.0  104.0  104.0  104.0  104.0  104.0  104.0
       104.0  104.0  104.0  104.0  104.0  104.0  104.0  104.0  104.0  104.0
       104.0  104.0  104.0  104.0  104.0  104.0  104.0  104.0  104.0  104.0
       104.0  104.0  104.0  104.0  104.0  104.0  104.0  104.0  104.0  104.0
       104.0  104.0  104.0  104.0  104.0  104.0  104.0  104.0  104.0  104.0
       104.0  104.0  104.0  104.0  104.0  104.0  104.0  104.0  104.0  104.0
   3   124.9  118.2  112.4  108.3  106.0  104.9  104.3  104.1  104.0  104.0
       104.0  104.0  104.0  104.0  104.0  104.0  104.0  104.0  104.0  104.0
       104.0  104.0  104.0  104.0  104.0  104.0  104.0  104.0  104.0  104.0
       104.0  104.0  104.0  104.0  104.0  104.0  104.0  104.0  104.0  104.0
       104.0  104.0  104.0  104.0  104.0  104.0  104.0  104.0  104.0  104.0
       104.0  104.0  104.0  104.0  104.0  104.0  104.0  104.0  104.0  104.0
       104.0  104.0  104.0  104.0  104.0  104.0  104.0  104.0  104.0  104.0
       104.0  104.0  104.0  104.0  104.0  104.0  104.0  104.0  104.0  104.0
       104.0  104.0  104.0  104.0  104.0  104.0  104.0  104.0  104.0  104.0
       104.0  104.0  104.0  104.0  104.0  104.0  104.0  104.0  104.0  104.0
   4   124.9  118.2  112.4  108.3  106.0  104.9  104.3  104.1  104.0  104.0
       104.0  104.0  104.0  104.0  104.0  104.0  104.0  104.0  104.0  104.0
       104.0  104.0  104.0  104.0  104.0  104.0  104.0  104.0  104.0  104.0
       104.0  104.0  104.0  104.0  104.0  104.0  104.0  104.0  104.0  104.0
       104.0  104.0  104.0  104.0  104.0  104.0  104.0  104.0  104.0  104.0
       104.0  104.0  104.0  104.0  104.0  104.0  104.0  104.0  104.0  104.0
       104.0  104.0  104.0  104.0  104.0  104.0  104.0  104.0  104.0  104.0
       104.0  104.0  104.0  104.0  104.0  104.0  104.0  104.0  104.0  104.0
       104.0  104.0  104.0  104.0  104.0  104.0  104.0  104.0  104.0  104.0
       104.0  104.0  104.0  104.0  104.0  104.0  104.0  104.0  104.0  104.0
   5   124.9  118.2  112.4  108.3  106.0  104.9  104.3  104.1  104.0  104.0
       104.0  104.0  104.0  104.0  104.0  104.0  104.0  104.0  104.0  104.0
       104.0  104.0  104.0  104.0  104.0  104.0  104.0  104.0  104.0  104.0
       104.0  104.0  104.0  104.0  104.0  104.0  104.0  104.0  104.0  104.0
       104.0  104.0  104.0  104.0  104.0  104.0  104.0  104.0  104.0  104.0
       104.0  104.0  104.0  104.0  104.0  104.0  104.0  104.0  104.0  104.0
       104.0  104.0  104.0  104.0  104.0  104.0  104.0  104.0  104.0  104.0
       104.0  104.0  104.0  104.0  104.0  104.0  104.0  104.0  104.0  104.0
       104.0  104.0  104.0  104.0  104.0  104.0  104.0  104.0  104.0  104.0
       104.0  104.0  104.0  104.0  104.0  104.0  104.0  104.0  104.0  104.0
   6   124.9  118.2  112.4  108.3  106.0  104.9  104.3  104.1  104.0  104.0
       104.0  104.0  104.0  104.0  104.0  104.0  104.0  104.0  104.0  104.0
       104.0  104.0  104.0  104.0  104.0  104.0  104.0  104.0  104.0  104.0
       104.0  104.0  104.0  104.0  104.0  104.0  104.0  104.0  104.0  104.0
       104.0  104.0  104.0  104.0  104.0  104.0  104.0  104.0  104.0  104.0
       104.0  104.0  104.0  104.0  104.0  104.0  104.0  104.0  104.0  104.0
       104.0  104.0  104.0  104.0  104.0  104.0  104.0  104.0  104.0  104.0
       104.0  104.0  104.0  104.0  104.0  104.0  104.0  104.0  104.0  104.0
       104.0  104.0  104.0  104.0  104.0  104.0  104.0  104.0  104.0  104.0
       104.0  104.0  104.0  104.0  104.0  104.0  104.0  104.0  104.0  104.0
   7   124.9  118.2  112.4  108.3  106.0  104.9  104.3  104.1  104.0  104.0
       104.0  104.0  104.0  104.0  104.0  104.0  104.0  104.0  104.0  104.0
       104.0  104.0  104.0  104.0  104.0  104.0  104.0  104.0  104.0  104.0
       104.0  104.0  104.0  104.0  104.0  104.0  104.0  104.0  104.0  104.0
       104.0  104.0  104.0  104.0  104.0  104.0  104.0  104.0  104.0  104.0
       104.0  104.0  104.0  104.0  104.0  104.0  104.0  104.0  104.0  104.0
       104.0  104.0  104.0  104.0  104.0  104.0  104.0  104.0  104.0  104.0
       104.0  104.0  104.0  104.0  104.0  104.0  104.0  104.0  104.0  104.0
       104.0  104.0  104.0  104.0  104.0  104.0  104.0  104.0  104.0  104.0
       104.0  104.0  104.0  104.0  104.0  104.0  104.0  104.0  104.0  104.0
1
  VOLUMETRIC BUDGET FOR ENTIRE MODEL AT END OF TIME STEP   10, STRESS PERIOD   1
  ------------------------------------------------------------------------------

     CUMULATIVE VOLUMES      L**3       RATES FOR THIS TIME STEP      L**3/T
     ------------------                 ------------------------

           IN:                                      IN:
           ---                                      ---
             STORAGE =           8.4566               STORAGE =       2.3365E-05
       CONSTANT HEAD =           0.0000         CONSTANT HEAD =           0.0000
     HEAD DEP BOUNDS =     1228937.1250       HEAD DEP BOUNDS =           1.9780
      STREAM LEAKAGE =           0.0000        STREAM LEAKAGE =           0.0000

            TOTAL IN =     1228945.6250              TOTAL IN =           1.9780

          OUT:                                     OUT:
          ----                                     ----
             STORAGE =     1228952.1250               STORAGE =           1.9782
       CONSTANT HEAD =           0.0000         CONSTANT HEAD =           0.0000
     HEAD DEP BOUNDS =           0.0000       HEAD DEP BOUNDS =           0.0000
      STREAM LEAKAGE =           0.0000        STREAM LEAKAGE =           0.0000

           TOTAL OUT =     1228952.1250             TOTAL OUT =           1.9782

            IN - OUT =          -6.5000              IN - OUT =      -2.4962E-04

 PERCENT DISCREPANCY =          -0.00     PERCENT DISCREPANCY =          -0.01






         TIME SUMMARY AT END OF TIME STEP   10 IN STRESS PERIOD    1
                    SECONDS     MINUTES      HOURS       DAYS        YEARS
                    -----------------------------------------------------------
   TIME STEP LENGTH  37155.      619.25      10.321     0.43004     1.17738E-03
 STRESS PERIOD TIME 2.51132E+05  4185.5      69.759      2.9066     7.95791E-03
         TOTAL TIME 2.51132E+05  4185.5      69.759      2.9066     7.95791E-03
1

 SOLVING FOR HEAD 

 NO OUTPUT CONTROL FOR STRESS PERIOD    1   TIME STEP   11

 SOLVING FOR HEAD 

 NO OUTPUT CONTROL FOR STRESS PERIOD    1   TIME STEP   12

 SOLVING FOR HEAD 

 NO OUTPUT CONTROL FOR STRESS PERIOD    1   TIME STEP   13

 SOLVING FOR HEAD 

 NO OUTPUT CONTROL FOR STRESS PERIOD    1   TIME STEP   14

 SOLVING FOR HEAD 

 NO OUTPUT CONTROL FOR STRESS PERIOD    1   TIME STEP   15

 SOLVING FOR HEAD 

 NO OUTPUT CONTROL FOR STRESS PERIOD    1   TIME STEP   16

 SOLVING FOR HEAD 

 NO OUTPUT CONTROL FOR STRESS PERIOD    1   TIME STEP   17

 SOLVING FOR HEAD 

 NO OUTPUT CONTROL FOR STRESS PERIOD    1   TIME STEP   18

 SOLVING FOR HEAD 

 NO OUTPUT CONTROL FOR STRESS PERIOD    1   TIME STEP   19

 SOLVING FOR HEAD 

 NO OUTPUT CONTROL FOR STRESS PERIOD    1   TIME STEP   20

 SOLVING FOR HEAD 

 NO OUTPUT CONTROL FOR STRESS PERIOD    1   TIME STEP   21

 SOLVING FOR HEAD 

 NO OUTPUT CONTROL FOR STRESS PERIOD    1   TIME STEP   22

 SOLVING FOR HEAD 

 NO OUTPUT CONTROL FOR STRESS PERIOD    1   TIME STEP   23

 SOLVING FOR HEAD 

 NO OUTPUT CONTROL FOR STRESS PERIOD    1   TIME STEP   24

 SOLVING FOR HEAD 

 NO OUTPUT CONTROL FOR STRESS PERIOD    1   TIME STEP   25

 SOLVING FOR HEAD 

 NO OUTPUT CONTROL FOR STRESS PERIOD    1   TIME STEP   26

 SOLVING FOR HEAD 

 NO OUTPUT CONTROL FOR STRESS PERIOD    1   TIME STEP   27

 SOLVING FOR HEAD 

 NO OUTPUT CONTROL FOR STRESS PERIOD    1   TIME STEP   28

 SOLVING FOR HEAD 

 NO OUTPUT CONTROL FOR STRESS PERIOD    1   TIME STEP   29

 SOLVING FOR HEAD 

 OUTPUT CONTROL FOR STRESS PERIOD    1   TIME STEP   30
    PRINT HEAD FOR ALL LAYERS
    PRINT BUDGET
    SAVE BUDGET

  HEAD DEP BOUNDS   PERIOD    1   STEP  30
 BOUNDARY      1   LAYER   1   ROW     1   COL     1   RATE    9.240820E-02
 BOUNDARY      2   LAYER   1   ROW     2   COL     1   RATE    9.233204E-02
 BOUNDARY      3   LAYER   1   ROW     3   COL     1   RATE    9.083150E-02
 BOUNDARY      4   LAYER   1   ROW     4   COL     1   RATE    6.513482E-02
 BOUNDARY      5   LAYER   1   ROW     5   COL     1   RATE    9.083150E-02
 BOUNDARY      6   LAYER   1   ROW     6   COL     1   RATE    9.233204E-02
 BOUNDARY      7   LAYER   1   ROW     7   COL     1   RATE    9.240820E-02



 STREAM LISTING     PERIOD      1   STEP       30

 LAYER ROW COL. STREAM  RCH.   FLOW INTO    STREAM     FLOW OUT OF   OVRLND.    DIRECT     STREAM      STREAM      STREAM     STREAM  STREAMBED   FLOW TO   CHNG. UNSAT. 
                SEG.NO.  NO.   STRM. RCH.    LOSS       STRM. RCH.   RUNOFF     PRECIP       ET         HEAD        DEPTH      WIDTH  CONDCTNC.   WAT. TAB.

   1    4    1     1     1    3.0000E-01  3.4737E-04   2.9965E-01  0.000E+00  0.000E+00  0.000E+00  1.40279E+02  4.294E-01  2.326E+00  3.737E-04  0.000E+00  3.474E-04
   1    4    2     1     2    2.9965E-01  3.4724E-04   2.9931E-01  0.000E+00  0.000E+00  0.000E+00  1.39979E+02  4.292E-01  2.326E+00  3.737E-04  0.000E+00  3.472E-04
   1    4    3     1     3    2.9931E-01  3.4710E-04   2.9896E-01  0.000E+00  0.000E+00  0.000E+00  1.39679E+02  4.290E-01  2.326E+00  3.736E-04  0.000E+00  3.471E-04
   1    4    4     1     4    2.9896E-01  3.4696E-04   2.9861E-01  0.000E+00  0.000E+00  0.000E+00  1.39379E+02  4.288E-01  2.326E+00  3.735E-04  0.000E+00  3.470E-04
   1    4    5     1     5    2.9861E-01  3.4682E-04   2.9826E-01  0.000E+00  0.000E+00  0.000E+00  1.39079E+02  4.286E-01  2.325E+00  3.735E-04  0.000E+00  3.468E-04
   1    4    6     1     6    2.9826E-01  3.4669E-04   2.9792E-01  0.000E+00  0.000E+00  0.000E+00  1.38778E+02  4.284E-01  2.325E+00  3.734E-04  0.000E+00  3.467E-04
   1    4    7     1     7    2.9792E-01  3.4655E-04   2.9757E-01  0.000E+00  0.000E+00  0.000E+00  1.38478E+02  4.282E-01  2.325E+00  3.733E-04  0.000E+00  3.466E-04
   1    4    8     1     8    2.9757E-01  3.4641E-04   2.9722E-01  0.000E+00  0.000E+00  0.000E+00  1.38178E+02  4.280E-01  2.325E+00  3.733E-04  0.000E+00  3.464E-04
   1    4    9     1     9    2.9722E-01  3.4628E-04   2.9688E-01  0.000E+00  0.000E+00  0.000E+00  1.37878E+02  4.278E-01  2.324E+00  3.732E-04  0.000E+00  3.463E-04
   1    4   10     1    10    2.9688E-01  3.4614E-04   2.9653E-01  0.000E+00  0.000E+00  0.000E+00  1.37578E+02  4.276E-01  2.324E+00  3.732E-04  0.000E+00  3.461E-04
   1    4   11     1    11    2.9653E-01  3.4600E-04   2.9619E-01  0.000E+00  0.000E+00  0.000E+00  1.37277E+02  4.274E-01  2.324E+00  3.731E-04  0.000E+00  3.460E-04
   1    4   12     1    12    2.9619E-01  3.4586E-04   2.9584E-01  0.000E+00  0.000E+00  0.000E+00  1.36977E+02  4.272E-01  2.324E+00  3.730E-04  0.000E+00  3.459E-04
   1    4   13     1    13    2.9584E-01  3.4573E-04   2.9549E-01  0.000E+00  0.000E+00  0.000E+00  1.36677E+02  4.270E-01  2.323E+00  3.730E-04  0.000E+00  3.457E-04
   1    4   14     1    14    2.9549E-01  3.4559E-04   2.9515E-01  0.000E+00  0.000E+00  0.000E+00  1.36377E+02  4.268E-01  2.323E+00  3.729E-04  0.000E+00  3.456E-04
   1    4   15     1    15    2.9515E-01  3.4545E-04   2.9480E-01  0.000E+00  0.000E+00  0.000E+00  1.36077E+02  4.266E-01  2.323E+00  3.728E-04  0.000E+00  3.455E-04
   1    4   16     1    16    2.9480E-01  3.4531E-04   2.9446E-01  0.000E+00  0.000E+00  0.000E+00  1.35776E+02  4.264E-01  2.323E+00  3.728E-04  0.000E+00  3.453E-04
   1    4   17     1    17    2.9446E-01  3.4518E-04   2.9411E-01  0.000E+00  0.000E+00  0.000E+00  1.35476E+02  4.262E-01  2.322E+00  3.727E-04  0.000E+00  3.452E-04
[...]

   1    4    1     1     1    6.1800E+00  2.0196E-03   6.1780E+00  0.000E+00  0.000E+00  0.000E+00  1.41732E+02  1.882E+00  4.064E+00  8.478E-04  2.022E-03  2.232E-06
   1    4    2     1     2    6.1780E+00  2.0191E-03   6.1760E+00  0.000E+00  0.000E+00  0.000E+00  1.41432E+02  1.882E+00  4.064E+00  8.477E-04  2.028E-03 -3.853E-06
   1    4    3     1     3    6.1760E+00  2.0186E-03   6.1739E+00  0.000E+00  0.000E+00  0.000E+00  1.41131E+02  1.881E+00  4.064E+00  8.476E-04  2.033E-03 -9.905E-06
   1    4    4     1     4    6.1739E+00  2.0180E-03   6.1719E+00  0.000E+00  0.000E+00  0.000E+00  1.40831E+02  1.881E+00  4.063E+00  8.475E-04  2.039E-03 -1.596E-05
   1    4    5     1     5    6.1719E+00  2.0175E-03   6.1699E+00  0.000E+00  0.000E+00  0.000E+00  1.40531E+02  1.881E+00  4.063E+00  8.474E-04  2.045E-03 -2.213E-05
   1    4    6     1     6    6.1699E+00  2.0170E-03   6.1679E+00  0.000E+00  0.000E+00  0.000E+00  1.40231E+02  1.881E+00  4.062E+00  8.473E-04  2.047E-03 -2.535E-05
   1    4    7     1     7    6.1679E+00  2.0165E-03   6.1659E+00  0.000E+00  0.000E+00  0.000E+00  1.39930E+02  1.880E+00  4.062E+00  8.472E-04  2.050E-03 -2.865E-05
   1    4    8     1     8    6.1659E+00  2.0160E-03   6.1639E+00  0.000E+00  0.000E+00  0.000E+00  1.39630E+02  1.880E+00  4.062E+00  8.471E-04  2.053E-03 -3.210E-05
   1    4    9     1     9    6.1639E+00  2.0155E-03   6.1618E+00  0.000E+00  0.000E+00  0.000E+00  1.39330E+02  1.880E+00  4.061E+00  8.470E-04  2.057E-03 -3.628E-05
   1    4   10     1    10    6.1618E+00  2.0150E-03   6.1598E+00  0.000E+00  0.000E+00  0.000E+00  1.39029E+02  1.879E+00  4.061E+00  8.469E-04  2.062E-03 -4.253E-05
   1    4   11     1    11    6.1598E+00  2.0144E-03   6.1578E+00  0.000E+00  0.000E+00  0.000E+00  1.38729E+02  1.879E+00  4.061E+00  8.468E-04  2.068E-03 -4.897E-05
   1    4   12     1    12    6.1578E+00  2.0139E-03   6.1558E+00  0.000E+00  0.000E+00  0.000E+00  1.38429E+02  1.879E+00  4.060E+00  8.467E-04  2.079E-03 -5.988E-05
   1    4   13     1    13    6.1558E+00  2.0134E-03   6.1538E+00  0.000E+00  0.000E+00  0.000E+00  1.38128E+02  1.878E+00  4.060E+00  8.466E-04  2.095E-03 -7.628E-05
   1    4   14     1    14    6.1538E+00  2.0129E-03   6.1518E+00  0.000E+00  0.000E+00  0.000E+00  1.37828E+02  1.878E+00  4.059E+00  8.465E-04  2.116E-03 -9.818E-05
   1    4   15     1    15    6.1518E+00  2.0124E-03   6.1498E+00  0.000E+00  0.000E+00  0.000E+00  1.37528E+02  1.878E+00  4.059E+00  8.464E-04  2.138E-03 -1.203E-04
   1    4   16     1    16    6.1498E+00  2.0119E-03   6.1477E+00  0.000E+00  0.000E+00  0.000E+00  1.37227E+02  1.877E+00  4.059E+00  8.463E-04  2.172E-03 -1.548E-04
   1    4   17     1    17    6.1477E+00  2.0114E-03   6.1457E+00  0.000E+00  0.000E+00  0.000E+00  1.36927E+02  1.877E+00  4.058E+00  8.462E-04  2.229E-03 -2.124E-04
   1    4   18     1    18    6.1457E+00  2.0108E-03   6.1437E+00  0.000E+00  0.000E+00  0.000E+00  1.36627E+02  1.877E+00  4.058E+00  8.461E-04  2.340E-03 -3.241E-04
   1    4   19     1    19    6.1437E+00  2.0103E-03   6.1417E+00  0.000E+00  0.000E+00  0.000E+00  1.36326E+02  1.876E+00  4.057E+00  8.460E-04  2.452E-03 -4.363E-04
   1    4   20     1    20    6.1417E+00  2.0098E-03   6.1397E+00  0.000E+00  0.000E+00  0.000E+00  1.36026E+02  1.876E+00  4.057E+00  8.458E-04  2.375E-03 -3.605E-04
   1    4   21     1    21    6.1397E+00  2.0093E-03   6.1377E+00  0.000E+00  0.000E+00  0.000E+00  1.35726E+02  1.876E+00  4.057E+00  8.457E-04  2.551E-03 -5.366E-04
   1    4   22     1    22    6.1377E+00  2.0088E-03   6.1357E+00  0.000E+00  0.000E+00  0.000E+00  1.35425E+02  1.875E+00  4.056E+00  8.456E-04  2.882E-03 -8.679E-04
   1    4   23     1    23    6.1357E+00  2.0083E-03   6.1337E+00  0.000E+00  0.000E+00  0.000E+00  1.35125E+02  1.875E+00  4.056E+00  8.455E-04  3.394E-03 -1.381E-03
   1    4   24     1    24    6.1337E+00  2.0078E-03   6.1317E+00  0.000E+00  0.000E+00  0.000E+00  1.34825E+02  1.875E+00  4.056E+00  8.454E-04  0.000E+00  2.013E-03
   1    4   25     1    25    6.1317E+00  2.0073E-03   6.1297E+00  0.000E+00  0.000E+00  0.000E+00  1.34525E+02  1.875E+00  4.055E+00  8.453E-04  0.000E+00  2.012E-03
   1    4   26     1    26    6.1297E+00  2.0067E-03   6.1277E+00  0.000E+00  0.000E+00  0.000E+00  1.34224E+02  1.874E+00  4.055E+00  8.452E-04  0.000E+00  2.007E-03
   1    4   27     1    27    6.1277E+00  2.0062E-03   6.1257E+00  0.000E+00  0.000E+00  0.000E+00  1.33924E+02  1.874E+00  4.054E+00  8.451E-04  0.000E+00  2.006E-03
   1    4   28     1    28    6.1257E+00  2.0057E-03   6.1236E+00  0.000E+00  0.000E+00  0.000E+00  1.33624E+02  1.874E+00  4.054E+00  8.450E-04  0.000E+00  2.006E-03
   1    4   29     1    29    6.1236E+00  2.0052E-03   6.1216E+00  0.000E+00  0.000E+00  0.000E+00  1.33323E+02  1.873E+00  4.054E+00  8.449E-04  0.000E+00  2.005E-03
   1    4   30     1    30    6.1216E+00  2.0047E-03   6.1196E+00  0.000E+00  0.000E+00  0.000E+00  1.33023E+02  1.873E+00  4.053E+00  8.448E-04  0.000E+00  2.005E-03
   1    4   31     1    31    6.1196E+00  2.0042E-03   6.1176E+00  0.000E+00  0.000E+00  0.000E+00  1.32723E+02  1.873E+00  4.053E+00  8.447E-04  0.000E+00  2.004E-03
   1    4   32     1    32    6.1176E+00  2.0037E-03   6.1156E+00  0.000E+00  0.000E+00  0.000E+00  1.32422E+02  1.872E+00  4.053E+00  8.446E-04  0.000E+00  2.004E-03
   1    4   33     1    33    6.1156E+00  2.0032E-03   6.1136E+00  0.000E+00  0.000E+00  0.000E+00  1.32122E+02  1.872E+00  4.052E+00  8.445E-04  0.000E+00  2.003E-03
   1    4   34     1    34    6.1136E+00  2.0026E-03   6.1116E+00  0.000E+00  0.000E+00  0.000E+00  1.31822E+02  1.872E+00  4.052E+00  8.444E-04  0.000E+00  2.003E-03
   1    4   35     1    35    6.1116E+00  2.0021E-03   6.1096E+00  0.000E+00  0.000E+00  0.000E+00  1.31521E+02  1.871E+00  4.051E+00  8.443E-04  0.000E+00  2.002E-03
   1    4   36     1    36    6.1096E+00  2.0016E-03   6.1076E+00  0.000E+00  0.000E+00  0.000E+00  1.31221E+02  1.871E+00  4.051E+00  8.442E-04  0.000E+00  2.002E-03
   1    4   37     1    37    6.1076E+00  2.0011E-03   6.1056E+00  0.000E+00  0.000E+00  0.000E+00  1.30921E+02  1.871E+00  4.051E+00  8.441E-04  1.013E-04  1.900E-03
   1    4   38     1    38    6.1056E+00  2.0006E-03   6.1036E+00  0.000E+00  0.000E+00  0.000E+00  1.30620E+02  1.870E+00  4.050E+00  8.440E-04  0.000E+00  2.001E-03
   1    4   39     1    39    6.1036E+00  2.0001E-03   6.1016E+00  0.000E+00  0.000E+00  0.000E+00  1.30320E+02  1.870E+00  4.050E+00  8.439E-04  0.000E+00  2.000E-03
   1    4   40     1    40    6.1016E+00  1.9996E-03   6.0996E+00  0.000E+00  0.000E+00  0.000E+00  1.30020E+02  1.870E+00  4.050E+00  8.438E-04  0.000E+00  2.000E-03
   1    4   41     1    41    6.0996E+00  1.9991E-03   6.0976E+00  0.000E+00  0.000E+00  0.000E+00  1.29719E+02  1.869E+00  4.049E+00  8.437E-04  0.000E+00  1.999E-03
   1    4   42     1    42    6.0976E+00  1.9545E-03   6.0957E+00  0.000E+00  0.000E+00  0.000E+00  1.29419E+02  1.869E+00  4.049E+00  8.436E-04  0.000E+00  1.954E-03
   1    4   43     1    43    6.0957E+00  1.9981E-03   6.0937E+00  0.000E+00  0.000E+00  0.000E+00  1.29119E+02  1.869E+00  4.048E+00  8.435E-04  0.000E+00  1.998E-03
   1    4   44     1    44    6.0937E+00  1.9976E-03   6.0917E+00  0.000E+00  0.000E+00  0.000E+00  1.28819E+02  1.869E+00  4.048E+00  8.434E-04  5.781E-04  1.419E-03
   1    4   45     1    45    6.0917E+00  1.9970E-03   6.0897E+00  0.000E+00  0.000E+00  0.000E+00  1.28518E+02  1.868E+00  4.048E+00  8.433E-04  1.704E-03  2.930E-04
   1    4   46     1    46    6.0897E+00  1.9965E-03   6.0877E+00  0.000E+00  0.000E+00  0.000E+00  1.28218E+02  1.868E+00  4.047E+00  8.432E-04  2.841E-03 -8.334E-04
   1    4   47     1    47    6.0877E+00  1.9960E-03   6.0857E+00  0.000E+00  0.000E+00  0.000E+00  1.27918E+02  1.868E+00  4.047E+00  8.431E-04  3.931E-03 -1.925E-03
   1    4   48     1    48    6.0857E+00  1.9955E-03   6.0837E+00  0.000E+00  0.000E+00  0.000E+00  1.27617E+02  1.867E+00  4.047E+00  8.430E-04  4.987E-03 -2.981E-03
   1    4   49     1    49    6.0837E+00  1.9950E-03   6.0817E+00  0.000E+00  0.000E+00  0.000E+00  1.27317E+02  1.867E+00  4.046E+00  8.429E-04  5.997E-03 -3.992E-03
   1    4   50     1    50    6.0817E+00  1.9944E-03   6.0797E+00  0.000E+00  0.000E+00  0.000E+00  1.27017E+02  1.867E+00  4.046E+00  8.428E-04  4.985E-03  4.977E-03
   1    4   51     1    51    6.0797E+00  1.6819E-03   6.0780E+00  0.000E+00  0.000E+00  0.000E+00  1.26716E+02  1.866E+00  4.045E+00  8.427E-04  4.984E-03  4.976E-03
   1    4   52     1    52    6.0780E+00  1.3906E-03   6.0766E+00  0.000E+00  0.000E+00  0.000E+00  1.26416E+02  1.866E+00  4.045E+00  8.426E-04  4.982E-03  4.974E-03
   1    4   53     1    53    6.0766E+00  1.1194E-03   6.0755E+00  0.000E+00  0.000E+00  0.000E+00  1.26116E+02  1.866E+00  4.045E+00  8.425E-04  4.980E-03  4.972E-03
   1    4   54     1    54    6.0755E+00  8.6719E-04   6.0746E+00  0.000E+00  0.000E+00  0.000E+00  1.25816E+02  1.866E+00  4.045E+00  8.425E-04  4.978E-03  4.971E-03
   1    4   55     1    55    6.0746E+00  6.3365E-04   6.0740E+00  0.000E+00  0.000E+00  0.000E+00  1.25516E+02  1.866E+00  4.045E+00  8.424E-04  4.977E-03  4.969E-03
   1    4   56     1    56    6.0740E+00  4.1787E-04   6.0736E+00  0.000E+00  0.000E+00  0.000E+00  1.25216E+02  1.866E+00  4.044E+00  8.424E-04  4.975E-03  4.967E-03
   1    4   57     1    57    6.0736E+00  2.1914E-04   6.0734E+00  0.000E+00  0.000E+00  0.000E+00  1.24915E+02  1.865E+00  4.044E+00  8.424E-04  4.973E-03  4.965E-03
   1    4   58     1    58    6.0734E+00  3.7060E-05   6.0733E+00  0.000E+00  0.000E+00  0.000E+00  1.24615E+02  1.865E+00  4.044E+00  8.424E-04  4.972E-03  4.964E-03
   1    4   59     1    59    6.0733E+00 -1.2866E-04   6.0735E+00  0.000E+00  0.000E+00  0.000E+00  1.24315E+02  1.865E+00  4.044E+00  8.424E-04  4.970E-03  4.962E-03
   1    4   60     1    60    6.0735E+00 -2.7893E-04   6.0737E+00  0.000E+00  0.000E+00  0.000E+00  1.24016E+02  1.866E+00  4.044E+00  8.424E-04  4.968E-03  4.960E-03
   1    4   61     1    61    6.0737E+00 -4.1428E-04   6.0741E+00  0.000E+00  0.000E+00  0.000E+00  1.23716E+02  1.866E+00  4.045E+00  8.424E-04  4.966E-03  4.958E-03
   1    4   62     1    62    6.0741E+00 -5.3459E-04   6.0747E+00  0.000E+00  0.000E+00  0.000E+00  1.23416E+02  1.866E+00  4.045E+00  8.424E-04  4.965E-03  4.957E-03
   1    4   63     1    63    6.0747E+00 -6.3997E-04   6.0753E+00  0.000E+00  0.000E+00  0.000E+00  1.23116E+02  1.866E+00  4.045E+00  8.425E-04  4.962E-03  4.955E-03
   1    4   64     1    64    6.0753E+00 -7.3132E-04   6.0761E+00  0.000E+00  0.000E+00  0.000E+00  1.22816E+02  1.866E+00  4.045E+00  8.425E-04  4.960E-03  4.953E-03
   1    4   65     1    65    6.0761E+00 -8.0779E-04   6.0769E+00  0.000E+00  0.000E+00  0.000E+00  1.22516E+02  1.866E+00  4.045E+00  8.425E-04  4.296E-03  4.290E-03
   1    4   66     1    66    6.0769E+00 -8.7208E-04   6.0777E+00  0.000E+00  0.000E+00  0.000E+00  1.22216E+02  1.866E+00  4.045E+00  8.426E-04  3.615E-03  3.610E-03
   1    4   67     1    67    6.0777E+00 -9.2657E-04   6.0787E+00  0.000E+00  0.000E+00  0.000E+00  1.21916E+02  1.866E+00  4.045E+00  8.426E-04  2.949E-03  2.945E-03
   1    4   68     1    68    6.0787E+00 -9.7458E-04   6.0796E+00  0.000E+00  0.000E+00  0.000E+00  1.21616E+02  1.866E+00  4.045E+00  8.427E-04  2.307E-03  2.303E-03
   1    4   69     1    69    6.0796E+00 -1.0186E-03   6.0807E+00  0.000E+00  0.000E+00  0.000E+00  1.21317E+02  1.867E+00  4.046E+00  8.427E-04  1.769E-03  1.766E-03
   1    4   70     1    70    6.0807E+00 -1.0602E-03   6.0817E+00  0.000E+00  0.000E+00  0.000E+00  1.21017E+02  1.867E+00  4.046E+00  8.428E-04  1.806E-03  1.804E-03
   1    4   71     1    71    6.0817E+00 -1.0975E-03   6.0828E+00  0.000E+00  0.000E+00  0.000E+00  1.20717E+02  1.867E+00  4.046E+00  8.428E-04  1.311E-03  1.310E-03
   1    4   72     1    72    6.0828E+00 -1.1338E-03   6.0839E+00  0.000E+00  0.000E+00  0.000E+00  1.20417E+02  1.867E+00  4.046E+00  8.429E-04  6.945E-04  6.937E-04
   1    4   73     1    73    6.0839E+00 -1.1715E-03   6.0851E+00  0.000E+00  0.000E+00  0.000E+00  1.20117E+02  1.867E+00  4.047E+00  8.430E-04  8.933E-05  8.923E-05
   1    4   74     1    74    6.0851E+00 -1.2129E-03   6.0863E+00  0.000E+00  0.000E+00  0.000E+00  1.19817E+02  1.867E+00  4.047E+00  8.430E-04  0.000E+00  0.000E+00
   1    4   75     1    75    6.0863E+00 -1.2576E-03   6.0876E+00  0.000E+00  0.000E+00  0.000E+00  1.19518E+02  1.868E+00  4.047E+00  8.431E-04  0.000E+00  0.000E+00
   1    4   76     1    76    6.0876E+00 -1.3065E-03   6.0889E+00  0.000E+00  0.000E+00  0.000E+00  1.19218E+02  1.868E+00  4.047E+00  8.431E-04  0.000E+00  0.000E+00
   1    4   77     1    77    6.0889E+00 -1.3597E-03   6.0903E+00  0.000E+00  0.000E+00  0.000E+00  1.18918E+02  1.868E+00  4.047E+00  8.432E-04  0.000E+00  0.000E+00
   1    4   78     1    78    6.0903E+00 -1.4165E-03   6.0917E+00  0.000E+00  0.000E+00  0.000E+00  1.18618E+02  1.868E+00  4.048E+00  8.433E-04  0.000E+00  0.000E+00
   1    4   79     1    79    6.0917E+00 -1.4771E-03   6.0931E+00  0.000E+00  0.000E+00  0.000E+00  1.18318E+02  1.868E+00  4.048E+00  8.434E-04  0.000E+00  0.000E+00
   1    4   80     1    80    6.0931E+00 -1.5426E-03   6.0947E+00  0.000E+00  0.000E+00  0.000E+00  1.18019E+02  1.869E+00  4.048E+00  8.434E-04  0.000E+00  0.000E+00
   1    4   81     1    81    6.0947E+00 -1.6133E-03   6.0963E+00  0.000E+00  0.000E+00  0.000E+00  1.17719E+02  1.869E+00  4.049E+00  8.435E-04  0.000E+00  0.000E+00
   1    4   82     1    82    6.0963E+00 -1.6885E-03   6.0980E+00  0.000E+00  0.000E+00  0.000E+00  1.17419E+02  1.869E+00  4.049E+00  8.436E-04  0.000E+00  0.000E+00
   1    4   83     1    83    6.0980E+00 -1.7687E-03   6.0998E+00  0.000E+00  0.000E+00  0.000E+00  1.17119E+02  1.869E+00  4.049E+00  8.437E-04  0.000E+00  0.000E+00
   1    4   84     1    84    6.0998E+00 -1.8547E-03   6.1016E+00  0.000E+00  0.000E+00  0.000E+00  1.16820E+02  1.870E+00  4.050E+00  8.438E-04  0.000E+00  0.000E+00
   1    4   85     1    85    6.1016E+00 -1.9471E-03   6.1036E+00  0.000E+00  0.000E+00  0.000E+00  1.16520E+02  1.870E+00  4.050E+00  8.439E-04  0.000E+00  0.000E+00
   1    4   86     1    86    6.1036E+00 -2.0453E-03   6.1056E+00  0.000E+00  0.000E+00  0.000E+00  1.16220E+02  1.870E+00  4.050E+00  8.440E-04  0.000E+00  0.000E+00
   1    4   87     1    87    6.1056E+00 -2.1497E-03   6.1078E+00  0.000E+00  0.000E+00  0.000E+00  1.15921E+02  1.871E+00  4.051E+00  8.441E-04  0.000E+00  0.000E+00
   1    4   88     1    88    6.1078E+00 -2.2615E-03   6.1100E+00  0.000E+00  0.000E+00  0.000E+00  1.15621E+02  1.871E+00  4.051E+00  8.442E-04  0.000E+00  0.000E+00
   1    4   89     1    89    6.1100E+00 -2.3810E-03   6.1124E+00  0.000E+00  0.000E+00  0.000E+00  1.15321E+02  1.871E+00  4.052E+00  8.443E-04  0.000E+00  0.000E+00
   1    4   90     1    90    6.1124E+00 -2.5081E-03   6.1149E+00  0.000E+00  0.000E+00  0.000E+00  1.15022E+02  1.872E+00  4.052E+00  8.445E-04  0.000E+00  0.000E+00
   1    4   91     1    91    6.1149E+00 -2.6432E-03   6.1176E+00  0.000E+00  0.000E+00  0.000E+00  1.14722E+02  1.872E+00  4.052E+00  8.446E-04  0.000E+00  0.000E+00
   1    4   92     1    92    6.1176E+00 -2.7874E-03   6.1203E+00  0.000E+00  0.000E+00  0.000E+00  1.14423E+02  1.873E+00  4.053E+00  8.447E-04  0.000E+00  0.000E+00
   1    4   93     1    93    6.1203E+00 -2.9414E-03   6.1233E+00  0.000E+00  0.000E+00  0.000E+00  1.14123E+02  1.873E+00  4.054E+00  8.449E-04  0.000E+00  0.000E+00
   1    4   94     1    94    6.1233E+00 -3.1050E-03   6.1264E+00  0.000E+00  0.000E+00  0.000E+00  1.13824E+02  1.874E+00  4.054E+00  8.450E-04  0.000E+00  0.000E+00
   1    4   95     1    95    6.1264E+00 -3.2790E-03   6.1297E+00  0.000E+00  0.000E+00  0.000E+00  1.13524E+02  1.874E+00  4.055E+00  8.452E-04  0.000E+00  0.000E+00
   1    4   96     1    96    6.1297E+00 -3.4646E-03   6.1331E+00  0.000E+00  0.000E+00  0.000E+00  1.13225E+02  1.875E+00  4.055E+00  8.454E-04  0.000E+00  0.000E+00
   1    4   97     1    97    6.1331E+00 -3.6623E-03   6.1368E+00  0.000E+00  0.000E+00  0.000E+00  1.12925E+02  1.875E+00  4.056E+00  8.456E-04  0.000E+00  0.000E+00
   1    4   98     1    98    6.1368E+00 -3.8726E-03   6.1407E+00  0.000E+00  0.000E+00  0.000E+00  1.12626E+02  1.876E+00  4.057E+00  8.457E-04  0.000E+00  0.000E+00
   1    4   99     1    99    6.1407E+00 -4.0965E-03   6.1448E+00  0.000E+00  0.000E+00  0.000E+00  1.12326E+02  1.876E+00  4.057E+00  8.460E-04  0.000E+00  0.000E+00
   1    4  100     1   100    6.1448E+00 -4.3350E-03   6.1491E+00  0.000E+00  0.000E+00  0.000E+00  1.12027E+02  1.877E+00  4.058E+00  8.462E-04  0.000E+00  0.000E+00



1
  VOLUMETRIC BUDGET FOR UNSATURATED ZONE BENEATH STREAMS AT END OF TIME STEP    16 STRESS PERIOD  15
  ------------------------------------------------------------------------------------------------

    CUMULATIVE VOLUMES             L**3    RATES FOR THIS TIME STEP         L**3/T
    ------------------                     ------------------------


          STREAM LOSS =     11000140.0000            STREAM LOSS =        9.8312E-02
    CHANGE IN STORAGE =        86465.8438      CHANGE IN STORAGE =       -6.6421E-02
       RECHARGE TO GW =     10916347.0000         RECHARGE TO GW =            0.1649

             TOTAL IN =     11000140.0000               TOTAL IN =            0.1647

            TOTAL OUT =     11002813.0000              TOTAL OUT =            0.1649

             IN - OUT =        -2673.0000               IN - OUT =       -1.6524E-04

  PERCENT DISCREPANCY =           -0.01      PERCENT DISCREPANCY =            -0.03




         ****FAILED TO MEET SOLVER CONVERGENCE CRITERIA IN TIME STEP   16 OF STRESS PERIOD   15****
1
  VOLUMETRIC BUDGET FOR ENTIRE MODEL AT END OF TIME STEP   16, STRESS PERIOD  15
  ------------------------------------------------------------------------------

     CUMULATIVE VOLUMES      L**3       RATES FOR THIS TIME STEP      L**3/T
     ------------------                 ------------------------

           IN:                                      IN:
           ---                                      ---
             STORAGE =      380945.3438               STORAGE =           0.0000
       CONSTANT HEAD =           0.0000         CONSTANT HEAD =           0.0000
     HEAD DEP BOUNDS =     9756002.0000       HEAD DEP BOUNDS =       8.1793E-02
      STREAM LEAKAGE =    11537298.0000        STREAM LEAKAGE =           0.1733

            TOTAL IN =    21674244.0000              TOTAL IN =           0.2551

          OUT:                                     OUT:
          ----                                     ----
             STORAGE =    20974022.0000               STORAGE =           0.1792
       CONSTANT HEAD =           0.0000         CONSTANT HEAD =           0.0000
     HEAD DEP BOUNDS =           0.0000       HEAD DEP BOUNDS =           0.0000
      STREAM LEAKAGE =      700439.0625        STREAM LEAKAGE =       7.5768E-02

           TOTAL OUT =    21674462.0000             TOTAL OUT =           0.2550

            IN - OUT =        -218.0000              IN - OUT =       6.7949E-05

 PERCENT DISCREPANCY =          -0.00     PERCENT DISCREPANCY =           0.03






         TIME SUMMARY AT END OF TIME STEP   16 IN STRESS PERIOD   15
                    SECONDS     MINUTES      HOURS       DAYS        YEARS
                    -----------------------------------------------------------
   TIME STEP LENGTH  65823.      1097.0      18.284     0.76184     2.08579E-03
 STRESS PERIOD TIME 5.66475E+05  9441.2      157.35      6.5564     1.79505E-02
         TOTAL TIME 3.68545E+07 6.14241E+05  10237.      426.56      1.1678    
1
 FAILURE TO MEET SOLVER CONVERGENCE CRITERIA
 BUDGET PERCENT DISCREPANCY IS    0.0266
 STOPPING SIMULATION

 Run end date and time (yyyy/mm/dd hh:mm:ss): 2020/06/01 21:31:00
 Elapsed run time: 37.328 Seconds

